
---------- Begin Simulation Statistics ----------
simSeconds                                   4.861677                       # Number of seconds simulated (Second)
simTicks                                 4861677121000                       # Number of ticks simulated (Tick)
finalTick                                4861677121000                       # Number of ticks from beginning of simulation (restored from checkpoints and never reset) (Tick)
simFreq                                  1000000000000                       # The number of ticks per simulated second ((Tick/Second))
hostSeconds                                    109.07                       # Real time elapsed on the host (Second)
hostTickRate                              44572406035                       # The number of ticks simulated per host second (ticks/s) ((Tick/Second))
hostMemory                                    1889796                       # Number of bytes of host memory used (Byte)
simInsts                                    287882037                       # Number of instructions simulated (Count)
simOps                                      725210861                       # Number of ops (including micro ops) simulated (Count)
hostInstRate                                  2639333                       # Simulator instruction rate (inst/s) ((Count/Second))
hostOpRate                                    6648811                       # Simulator op (including micro ops) rate (op/s) ((Count/Second))
system.apicbridge.power_state.pwrStateResidencyTicks::UNDEFINED 4861677121000                       # Cumulative time (in ticks) in various power states (Tick)
system.bridge.power_state.pwrStateResidencyTicks::UNDEFINED 4861677121000                       # Cumulative time (in ticks) in various power states (Tick)
system.clk_domain.clock                           345                       # Clock period in ticks (Tick)
system.cpu0.numCycles                      9724728275                       # Number of cpu cycles simulated (Cycle)
system.cpu0.cpi                             42.203319                       # CPI: cycles per instruction (core level) ((Cycle/Count))
system.cpu0.ipc                              0.023695                       # IPC: instructions per cycle (core level) ((Count/Cycle))
system.cpu0.numWorkItemsStarted                     0                       # Number of work items this cpu started (Count)
system.cpu0.numWorkItemsCompleted                   0                       # Number of work items this cpu completed (Count)
system.cpu0.commitStats0.numInsts           230425676                       # Number of instructions committed (thread level) (Count)
system.cpu0.commitStats0.numOps             608694886                       # Number of ops (including micro ops) committed (thread level) (Count)
system.cpu0.commitStats0.numInstsNotNOP             0                       # Number of instructions committed excluding NOPs or prefetches (Count)
system.cpu0.commitStats0.numOpsNotNOP               0                       # Number of Ops (including micro ops) Simulated (Count)
system.cpu0.commitStats0.cpi                42.203319                       # CPI: cycles per instruction (thread level) ((Cycle/Count))
system.cpu0.commitStats0.ipc                 0.023695                       # IPC: instructions per cycle (thread level) ((Count/Cycle))
system.cpu0.commitStats0.numMemRefs                 0                       # Number of memory references committed (Count)
system.cpu0.commitStats0.numFpInsts             19965                       # Number of float instructions (Count)
system.cpu0.commitStats0.numIntInsts        540649576                       # Number of integer instructions (Count)
system.cpu0.commitStats0.numLoadInsts        68017665                       # Number of load instructions (Count)
system.cpu0.commitStats0.numStoreInsts       21172908                       # Number of store instructions (Count)
system.cpu0.commitStats0.numVecInsts                0                       # Number of vector instructions (Count)
system.cpu0.commitStats0.committedInstType::No_OpClass       659260      0.11%      0.11% # Class of committed instruction. (Count)
system.cpu0.commitStats0.committedInstType::IntAlu    518514066     85.18%     85.29% # Class of committed instruction. (Count)
system.cpu0.commitStats0.committedInstType::IntMult       288507      0.05%     85.34% # Class of committed instruction. (Count)
system.cpu0.commitStats0.committedInstType::IntDiv        30492      0.01%     85.35% # Class of committed instruction. (Count)
system.cpu0.commitStats0.committedInstType::FloatAdd          403      0.00%     85.35% # Class of committed instruction. (Count)
system.cpu0.commitStats0.committedInstType::FloatCmp            0      0.00%     85.35% # Class of committed instruction. (Count)
system.cpu0.commitStats0.committedInstType::FloatCvt           16      0.00%     85.35% # Class of committed instruction. (Count)
system.cpu0.commitStats0.committedInstType::FloatMult            0      0.00%     85.35% # Class of committed instruction. (Count)
system.cpu0.commitStats0.committedInstType::FloatMultAcc            0      0.00%     85.35% # Class of committed instruction. (Count)
system.cpu0.commitStats0.committedInstType::FloatDiv            0      0.00%     85.35% # Class of committed instruction. (Count)
system.cpu0.commitStats0.committedInstType::FloatMisc            0      0.00%     85.35% # Class of committed instruction. (Count)
system.cpu0.commitStats0.committedInstType::FloatSqrt            0      0.00%     85.35% # Class of committed instruction. (Count)
system.cpu0.commitStats0.committedInstType::SimdAdd          662      0.00%     85.35% # Class of committed instruction. (Count)
system.cpu0.commitStats0.committedInstType::SimdAddAcc            0      0.00%     85.35% # Class of committed instruction. (Count)
system.cpu0.commitStats0.committedInstType::SimdAlu         1813      0.00%     85.35% # Class of committed instruction. (Count)
system.cpu0.commitStats0.committedInstType::SimdCmp            0      0.00%     85.35% # Class of committed instruction. (Count)
system.cpu0.commitStats0.committedInstType::SimdCvt         4602      0.00%     85.35% # Class of committed instruction. (Count)
system.cpu0.commitStats0.committedInstType::SimdMisc         6383      0.00%     85.35% # Class of committed instruction. (Count)
system.cpu0.commitStats0.committedInstType::SimdMult            0      0.00%     85.35% # Class of committed instruction. (Count)
system.cpu0.commitStats0.committedInstType::SimdMultAcc            0      0.00%     85.35% # Class of committed instruction. (Count)
system.cpu0.commitStats0.committedInstType::SimdMatMultAcc            0      0.00%     85.35% # Class of committed instruction. (Count)
system.cpu0.commitStats0.committedInstType::SimdShift          321      0.00%     85.35% # Class of committed instruction. (Count)
system.cpu0.commitStats0.committedInstType::SimdShiftAcc            0      0.00%     85.35% # Class of committed instruction. (Count)
system.cpu0.commitStats0.committedInstType::SimdDiv            0      0.00%     85.35% # Class of committed instruction. (Count)
system.cpu0.commitStats0.committedInstType::SimdSqrt            0      0.00%     85.35% # Class of committed instruction. (Count)
system.cpu0.commitStats0.committedInstType::SimdFloatAdd            0      0.00%     85.35% # Class of committed instruction. (Count)
system.cpu0.commitStats0.committedInstType::SimdFloatAlu            0      0.00%     85.35% # Class of committed instruction. (Count)
system.cpu0.commitStats0.committedInstType::SimdFloatCmp            0      0.00%     85.35% # Class of committed instruction. (Count)
system.cpu0.commitStats0.committedInstType::SimdFloatCvt            0      0.00%     85.35% # Class of committed instruction. (Count)
system.cpu0.commitStats0.committedInstType::SimdFloatDiv            0      0.00%     85.35% # Class of committed instruction. (Count)
system.cpu0.commitStats0.committedInstType::SimdFloatMisc            0      0.00%     85.35% # Class of committed instruction. (Count)
system.cpu0.commitStats0.committedInstType::SimdFloatMult            0      0.00%     85.35% # Class of committed instruction. (Count)
system.cpu0.commitStats0.committedInstType::SimdFloatMultAcc            0      0.00%     85.35% # Class of committed instruction. (Count)
system.cpu0.commitStats0.committedInstType::SimdFloatMatMultAcc            0      0.00%     85.35% # Class of committed instruction. (Count)
system.cpu0.commitStats0.committedInstType::SimdFloatSqrt            0      0.00%     85.35% # Class of committed instruction. (Count)
system.cpu0.commitStats0.committedInstType::SimdReduceAdd            0      0.00%     85.35% # Class of committed instruction. (Count)
system.cpu0.commitStats0.committedInstType::SimdReduceAlu            0      0.00%     85.35% # Class of committed instruction. (Count)
system.cpu0.commitStats0.committedInstType::SimdReduceCmp            0      0.00%     85.35% # Class of committed instruction. (Count)
system.cpu0.commitStats0.committedInstType::SimdFloatReduceAdd            0      0.00%     85.35% # Class of committed instruction. (Count)
system.cpu0.commitStats0.committedInstType::SimdFloatReduceCmp            0      0.00%     85.35% # Class of committed instruction. (Count)
system.cpu0.commitStats0.committedInstType::SimdAes            0      0.00%     85.35% # Class of committed instruction. (Count)
system.cpu0.commitStats0.committedInstType::SimdAesMix            0      0.00%     85.35% # Class of committed instruction. (Count)
system.cpu0.commitStats0.committedInstType::SimdSha1Hash            0      0.00%     85.35% # Class of committed instruction. (Count)
system.cpu0.commitStats0.committedInstType::SimdSha1Hash2            0      0.00%     85.35% # Class of committed instruction. (Count)
system.cpu0.commitStats0.committedInstType::SimdSha256Hash            0      0.00%     85.35% # Class of committed instruction. (Count)
system.cpu0.commitStats0.committedInstType::SimdSha256Hash2            0      0.00%     85.35% # Class of committed instruction. (Count)
system.cpu0.commitStats0.committedInstType::SimdShaSigma2            0      0.00%     85.35% # Class of committed instruction. (Count)
system.cpu0.commitStats0.committedInstType::SimdShaSigma3            0      0.00%     85.35% # Class of committed instruction. (Count)
system.cpu0.commitStats0.committedInstType::SimdPredAlu            0      0.00%     85.35% # Class of committed instruction. (Count)
system.cpu0.commitStats0.committedInstType::Matrix            0      0.00%     85.35% # Class of committed instruction. (Count)
system.cpu0.commitStats0.committedInstType::MatrixMov            0      0.00%     85.35% # Class of committed instruction. (Count)
system.cpu0.commitStats0.committedInstType::MatrixOP            0      0.00%     85.35% # Class of committed instruction. (Count)
system.cpu0.commitStats0.committedInstType::MemRead     68011783     11.17%     96.52% # Class of committed instruction. (Count)
system.cpu0.commitStats0.committedInstType::MemWrite     21172764      3.48%    100.00% # Class of committed instruction. (Count)
system.cpu0.commitStats0.committedInstType::FloatMemRead         3670      0.00%    100.00% # Class of committed instruction. (Count)
system.cpu0.commitStats0.committedInstType::FloatMemWrite          144      0.00%    100.00% # Class of committed instruction. (Count)
system.cpu0.commitStats0.committedInstType::IprAccess            0      0.00%    100.00% # Class of committed instruction. (Count)
system.cpu0.commitStats0.committedInstType::InstPrefetch            0      0.00%    100.00% # Class of committed instruction. (Count)
system.cpu0.commitStats0.committedInstType::VectorUnitStrideLoad            0      0.00%    100.00% # Class of committed instruction. (Count)
system.cpu0.commitStats0.committedInstType::VectorUnitStrideStore            0      0.00%    100.00% # Class of committed instruction. (Count)
system.cpu0.commitStats0.committedInstType::VectorUnitStrideMaskLoad            0      0.00%    100.00% # Class of committed instruction. (Count)
system.cpu0.commitStats0.committedInstType::VectorUnitStrideMaskStore            0      0.00%    100.00% # Class of committed instruction. (Count)
system.cpu0.commitStats0.committedInstType::VectorStridedLoad            0      0.00%    100.00% # Class of committed instruction. (Count)
system.cpu0.commitStats0.committedInstType::VectorStridedStore            0      0.00%    100.00% # Class of committed instruction. (Count)
system.cpu0.commitStats0.committedInstType::VectorIndexedLoad            0      0.00%    100.00% # Class of committed instruction. (Count)
system.cpu0.commitStats0.committedInstType::VectorIndexedStore            0      0.00%    100.00% # Class of committed instruction. (Count)
system.cpu0.commitStats0.committedInstType::VectorUnitStrideFaultOnlyFirstLoad            0      0.00%    100.00% # Class of committed instruction. (Count)
system.cpu0.commitStats0.committedInstType::VectorWholeRegisterLoad            0      0.00%    100.00% # Class of committed instruction. (Count)
system.cpu0.commitStats0.committedInstType::VectorWholeRegisterStore            0      0.00%    100.00% # Class of committed instruction. (Count)
system.cpu0.commitStats0.committedInstType::VectorIntegerArith            0      0.00%    100.00% # Class of committed instruction. (Count)
system.cpu0.commitStats0.committedInstType::VectorFloatArith            0      0.00%    100.00% # Class of committed instruction. (Count)
system.cpu0.commitStats0.committedInstType::VectorFloatConvert            0      0.00%    100.00% # Class of committed instruction. (Count)
system.cpu0.commitStats0.committedInstType::VectorIntegerReduce            0      0.00%    100.00% # Class of committed instruction. (Count)
system.cpu0.commitStats0.committedInstType::VectorFloatReduce            0      0.00%    100.00% # Class of committed instruction. (Count)
system.cpu0.commitStats0.committedInstType::VectorMisc            0      0.00%    100.00% # Class of committed instruction. (Count)
system.cpu0.commitStats0.committedInstType::VectorIntegerExtension            0      0.00%    100.00% # Class of committed instruction. (Count)
system.cpu0.commitStats0.committedInstType::VectorConfig            0      0.00%    100.00% # Class of committed instruction. (Count)
system.cpu0.commitStats0.committedInstType::total    608694886                       # Class of committed instruction. (Count)
system.cpu0.commitStats0.committedControl::IsControl     81153067                       # Class of control type instructions committed (Count)
system.cpu0.commitStats0.committedControl::IsDirectControl     79654360                       # Class of control type instructions committed (Count)
system.cpu0.commitStats0.committedControl::IsIndirectControl      1491959                       # Class of control type instructions committed (Count)
system.cpu0.commitStats0.committedControl::IsCondControl     76736554                       # Class of control type instructions committed (Count)
system.cpu0.commitStats0.committedControl::IsUncondControl      4414538                       # Class of control type instructions committed (Count)
system.cpu0.commitStats0.committedControl::IsCall      1379526                       # Class of control type instructions committed (Count)
system.cpu0.commitStats0.committedControl::IsReturn      1379463                       # Class of control type instructions committed (Count)
system.cpu0.dcache.demandHits::cpu0.data     84440819                       # number of demand (read+write) hits (Count)
system.cpu0.dcache.demandHits::total         84440819                       # number of demand (read+write) hits (Count)
system.cpu0.dcache.overallHits::cpu0.data     84504448                       # number of overall hits (Count)
system.cpu0.dcache.overallHits::total        84504448                       # number of overall hits (Count)
system.cpu0.dcache.demandMisses::cpu0.data       531055                       # number of demand (read+write) misses (Count)
system.cpu0.dcache.demandMisses::total         531055                       # number of demand (read+write) misses (Count)
system.cpu0.dcache.overallMisses::cpu0.data       658771                       # number of overall misses (Count)
system.cpu0.dcache.overallMisses::total        658771                       # number of overall misses (Count)
system.cpu0.dcache.demandAccesses::cpu0.data     84971874                       # number of demand (read+write) accesses (Count)
system.cpu0.dcache.demandAccesses::total     84971874                       # number of demand (read+write) accesses (Count)
system.cpu0.dcache.overallAccesses::cpu0.data     85163219                       # number of overall (read+write) accesses (Count)
system.cpu0.dcache.overallAccesses::total     85163219                       # number of overall (read+write) accesses (Count)
system.cpu0.dcache.demandMissRate::cpu0.data     0.006250                       # miss rate for demand accesses (Ratio)
system.cpu0.dcache.demandMissRate::total     0.006250                       # miss rate for demand accesses (Ratio)
system.cpu0.dcache.overallMissRate::cpu0.data     0.007735                       # miss rate for overall accesses (Ratio)
system.cpu0.dcache.overallMissRate::total     0.007735                       # miss rate for overall accesses (Ratio)
system.cpu0.dcache.blockedCycles::no_mshrs            0                       # number of cycles access was blocked (Cycle)
system.cpu0.dcache.blockedCycles::no_targets            0                       # number of cycles access was blocked (Cycle)
system.cpu0.dcache.blockedCauses::no_mshrs            0                       # number of times access was blocked (Count)
system.cpu0.dcache.blockedCauses::no_targets            0                       # number of times access was blocked (Count)
system.cpu0.dcache.avgBlocked::no_mshrs           nan                       # average number of cycles each access was blocked ((Cycle/Count))
system.cpu0.dcache.avgBlocked::no_targets          nan                       # average number of cycles each access was blocked ((Cycle/Count))
system.cpu0.dcache.writebacks::writebacks       516302                       # number of writebacks (Count)
system.cpu0.dcache.writebacks::total           516302                       # number of writebacks (Count)
system.cpu0.dcache.replacements                538646                       # number of replacements (Count)
system.cpu0.dcache.LockedRMWReadReq.hits::cpu0.data       525516                       # number of LockedRMWReadReq hits (Count)
system.cpu0.dcache.LockedRMWReadReq.hits::total       525516                       # number of LockedRMWReadReq hits (Count)
system.cpu0.dcache.LockedRMWReadReq.misses::cpu0.data        17032                       # number of LockedRMWReadReq misses (Count)
system.cpu0.dcache.LockedRMWReadReq.misses::total        17032                       # number of LockedRMWReadReq misses (Count)
system.cpu0.dcache.LockedRMWReadReq.accesses::cpu0.data       542548                       # number of LockedRMWReadReq accesses(hits+misses) (Count)
system.cpu0.dcache.LockedRMWReadReq.accesses::total       542548                       # number of LockedRMWReadReq accesses(hits+misses) (Count)
system.cpu0.dcache.LockedRMWReadReq.missRate::cpu0.data     0.031393                       # miss rate for LockedRMWReadReq accesses (Ratio)
system.cpu0.dcache.LockedRMWReadReq.missRate::total     0.031393                       # miss rate for LockedRMWReadReq accesses (Ratio)
system.cpu0.dcache.LockedRMWWriteReq.hits::cpu0.data       542548                       # number of LockedRMWWriteReq hits (Count)
system.cpu0.dcache.LockedRMWWriteReq.hits::total       542548                       # number of LockedRMWWriteReq hits (Count)
system.cpu0.dcache.LockedRMWWriteReq.accesses::cpu0.data       542548                       # number of LockedRMWWriteReq accesses(hits+misses) (Count)
system.cpu0.dcache.LockedRMWWriteReq.accesses::total       542548                       # number of LockedRMWWriteReq accesses(hits+misses) (Count)
system.cpu0.dcache.ReadReq.hits::cpu0.data     64244565                       # number of ReadReq hits (Count)
system.cpu0.dcache.ReadReq.hits::total       64244565                       # number of ReadReq hits (Count)
system.cpu0.dcache.ReadReq.misses::cpu0.data       120140                       # number of ReadReq misses (Count)
system.cpu0.dcache.ReadReq.misses::total       120140                       # number of ReadReq misses (Count)
system.cpu0.dcache.ReadReq.accesses::cpu0.data     64364705                       # number of ReadReq accesses(hits+misses) (Count)
system.cpu0.dcache.ReadReq.accesses::total     64364705                       # number of ReadReq accesses(hits+misses) (Count)
system.cpu0.dcache.ReadReq.missRate::cpu0.data     0.001867                       # miss rate for ReadReq accesses (Ratio)
system.cpu0.dcache.ReadReq.missRate::total     0.001867                       # miss rate for ReadReq accesses (Ratio)
system.cpu0.dcache.SoftPFReq.hits::cpu0.data        63629                       # number of SoftPFReq hits (Count)
system.cpu0.dcache.SoftPFReq.hits::total        63629                       # number of SoftPFReq hits (Count)
system.cpu0.dcache.SoftPFReq.misses::cpu0.data       127716                       # number of SoftPFReq misses (Count)
system.cpu0.dcache.SoftPFReq.misses::total       127716                       # number of SoftPFReq misses (Count)
system.cpu0.dcache.SoftPFReq.accesses::cpu0.data       191345                       # number of SoftPFReq accesses(hits+misses) (Count)
system.cpu0.dcache.SoftPFReq.accesses::total       191345                       # number of SoftPFReq accesses(hits+misses) (Count)
system.cpu0.dcache.SoftPFReq.missRate::cpu0.data     0.667465                       # miss rate for SoftPFReq accesses (Ratio)
system.cpu0.dcache.SoftPFReq.missRate::total     0.667465                       # miss rate for SoftPFReq accesses (Ratio)
system.cpu0.dcache.WriteReq.hits::cpu0.data     20196254                       # number of WriteReq hits (Count)
system.cpu0.dcache.WriteReq.hits::total      20196254                       # number of WriteReq hits (Count)
system.cpu0.dcache.WriteReq.misses::cpu0.data       410915                       # number of WriteReq misses (Count)
system.cpu0.dcache.WriteReq.misses::total       410915                       # number of WriteReq misses (Count)
system.cpu0.dcache.WriteReq.accesses::cpu0.data     20607169                       # number of WriteReq accesses(hits+misses) (Count)
system.cpu0.dcache.WriteReq.accesses::total     20607169                       # number of WriteReq accesses(hits+misses) (Count)
system.cpu0.dcache.WriteReq.missRate::cpu0.data     0.019940                       # miss rate for WriteReq accesses (Ratio)
system.cpu0.dcache.WriteReq.missRate::total     0.019940                       # miss rate for WriteReq accesses (Ratio)
system.cpu0.dcache.power_state.pwrStateResidencyTicks::UNDEFINED 4861677121000                       # Cumulative time (in ticks) in various power states (Tick)
system.cpu0.dcache.tags.tagsInUse         8137.172127                       # Average ticks per tags in use ((Tick/Count))
system.cpu0.dcache.tags.totalRefs            84468611                       # Total number of references to valid blocks. (Count)
system.cpu0.dcache.tags.sampledRefs            626654                       # Sample count of references to valid blocks. (Count)
system.cpu0.dcache.tags.avgRefs            134.793061                       # Average number of references to valid blocks. ((Count/Count))
system.cpu0.dcache.tags.warmupTick              12000                       # The tick when the warmup percentage was hit. (Tick)
system.cpu0.dcache.tags.occupancies::cpu0.data  8137.172127                       # Average occupied blocks per tick, per requestor ((Count/Tick))
system.cpu0.dcache.tags.avgOccs::cpu0.data     0.993307                       # Average percentage of cache occupancy ((Ratio/Tick))
system.cpu0.dcache.tags.avgOccs::total       0.993307                       # Average percentage of cache occupancy ((Ratio/Tick))
system.cpu0.dcache.tags.occupanciesTaskId::1024         5775                       # Occupied blocks per task id (Count)
system.cpu0.dcache.tags.ageTaskId_1024::1            2                       # Occupied blocks per task id, per block age (Count)
system.cpu0.dcache.tags.ageTaskId_1024::2          107                       # Occupied blocks per task id, per block age (Count)
system.cpu0.dcache.tags.ageTaskId_1024::3         5549                       # Occupied blocks per task id, per block age (Count)
system.cpu0.dcache.tags.ageTaskId_1024::4          117                       # Occupied blocks per task id, per block age (Count)
system.cpu0.dcache.tags.ratioOccsTaskId::1024     0.704956                       # Ratio of occupied blocks and all blocks, per task id (Ratio)
system.cpu0.dcache.tags.tagAccesses         690618949                       # Number of tag accesses (Count)
system.cpu0.dcache.tags.dataAccesses        690618949                       # Number of data accesses (Count)
system.cpu0.dcache.tags.power_state.pwrStateResidencyTicks::UNDEFINED 4861677121000                       # Cumulative time (in ticks) in various power states (Tick)
system.cpu0.dtb_walker_cache.demandHits::cpu0.mmu.dtb.walker         1148                       # number of demand (read+write) hits (Count)
system.cpu0.dtb_walker_cache.demandHits::total         1148                       # number of demand (read+write) hits (Count)
system.cpu0.dtb_walker_cache.overallHits::cpu0.mmu.dtb.walker         1148                       # number of overall hits (Count)
system.cpu0.dtb_walker_cache.overallHits::total         1148                       # number of overall hits (Count)
system.cpu0.dtb_walker_cache.demandMisses::cpu0.mmu.dtb.walker         1446                       # number of demand (read+write) misses (Count)
system.cpu0.dtb_walker_cache.demandMisses::total         1446                       # number of demand (read+write) misses (Count)
system.cpu0.dtb_walker_cache.overallMisses::cpu0.mmu.dtb.walker         1446                       # number of overall misses (Count)
system.cpu0.dtb_walker_cache.overallMisses::total         1446                       # number of overall misses (Count)
system.cpu0.dtb_walker_cache.demandAccesses::cpu0.mmu.dtb.walker         2594                       # number of demand (read+write) accesses (Count)
system.cpu0.dtb_walker_cache.demandAccesses::total         2594                       # number of demand (read+write) accesses (Count)
system.cpu0.dtb_walker_cache.overallAccesses::cpu0.mmu.dtb.walker         2594                       # number of overall (read+write) accesses (Count)
system.cpu0.dtb_walker_cache.overallAccesses::total         2594                       # number of overall (read+write) accesses (Count)
system.cpu0.dtb_walker_cache.demandMissRate::cpu0.mmu.dtb.walker     0.557440                       # miss rate for demand accesses (Ratio)
system.cpu0.dtb_walker_cache.demandMissRate::total     0.557440                       # miss rate for demand accesses (Ratio)
system.cpu0.dtb_walker_cache.overallMissRate::cpu0.mmu.dtb.walker     0.557440                       # miss rate for overall accesses (Ratio)
system.cpu0.dtb_walker_cache.overallMissRate::total     0.557440                       # miss rate for overall accesses (Ratio)
system.cpu0.dtb_walker_cache.blockedCycles::no_mshrs            0                       # number of cycles access was blocked (Cycle)
system.cpu0.dtb_walker_cache.blockedCycles::no_targets            0                       # number of cycles access was blocked (Cycle)
system.cpu0.dtb_walker_cache.blockedCauses::no_mshrs            0                       # number of times access was blocked (Count)
system.cpu0.dtb_walker_cache.blockedCauses::no_targets            0                       # number of times access was blocked (Count)
system.cpu0.dtb_walker_cache.avgBlocked::no_mshrs          nan                       # average number of cycles each access was blocked ((Cycle/Count))
system.cpu0.dtb_walker_cache.avgBlocked::no_targets          nan                       # average number of cycles each access was blocked ((Cycle/Count))
system.cpu0.dtb_walker_cache.writebacks::writebacks            7                       # number of writebacks (Count)
system.cpu0.dtb_walker_cache.writebacks::total            7                       # number of writebacks (Count)
system.cpu0.dtb_walker_cache.replacements         1280                       # number of replacements (Count)
system.cpu0.dtb_walker_cache.ReadReq.hits::cpu0.mmu.dtb.walker         1148                       # number of ReadReq hits (Count)
system.cpu0.dtb_walker_cache.ReadReq.hits::total         1148                       # number of ReadReq hits (Count)
system.cpu0.dtb_walker_cache.ReadReq.misses::cpu0.mmu.dtb.walker         1446                       # number of ReadReq misses (Count)
system.cpu0.dtb_walker_cache.ReadReq.misses::total         1446                       # number of ReadReq misses (Count)
system.cpu0.dtb_walker_cache.ReadReq.accesses::cpu0.mmu.dtb.walker         2594                       # number of ReadReq accesses(hits+misses) (Count)
system.cpu0.dtb_walker_cache.ReadReq.accesses::total         2594                       # number of ReadReq accesses(hits+misses) (Count)
system.cpu0.dtb_walker_cache.ReadReq.missRate::cpu0.mmu.dtb.walker     0.557440                       # miss rate for ReadReq accesses (Ratio)
system.cpu0.dtb_walker_cache.ReadReq.missRate::total     0.557440                       # miss rate for ReadReq accesses (Ratio)
system.cpu0.dtb_walker_cache.power_state.pwrStateResidencyTicks::UNDEFINED 4861677121000                       # Cumulative time (in ticks) in various power states (Tick)
system.cpu0.dtb_walker_cache.tags.tagsInUse     7.814868                       # Average ticks per tags in use ((Tick/Count))
system.cpu0.dtb_walker_cache.tags.totalRefs         2591                       # Total number of references to valid blocks. (Count)
system.cpu0.dtb_walker_cache.tags.sampledRefs         1445                       # Sample count of references to valid blocks. (Count)
system.cpu0.dtb_walker_cache.tags.avgRefs     1.793080                       # Average number of references to valid blocks. ((Count/Count))
system.cpu0.dtb_walker_cache.tags.warmupTick        12000                       # The tick when the warmup percentage was hit. (Tick)
system.cpu0.dtb_walker_cache.tags.occupancies::cpu0.mmu.dtb.walker     7.814868                       # Average occupied blocks per tick, per requestor ((Count/Tick))
system.cpu0.dtb_walker_cache.tags.avgOccs::cpu0.mmu.dtb.walker     0.488429                       # Average percentage of cache occupancy ((Ratio/Tick))
system.cpu0.dtb_walker_cache.tags.avgOccs::total     0.488429                       # Average percentage of cache occupancy ((Ratio/Tick))
system.cpu0.dtb_walker_cache.tags.occupanciesTaskId::1024            1                       # Occupied blocks per task id (Count)
system.cpu0.dtb_walker_cache.tags.ageTaskId_1024::3            1                       # Occupied blocks per task id, per block age (Count)
system.cpu0.dtb_walker_cache.tags.ratioOccsTaskId::1024     0.062500                       # Ratio of occupied blocks and all blocks, per task id (Ratio)
system.cpu0.dtb_walker_cache.tags.tagAccesses         6634                       # Number of tag accesses (Count)
system.cpu0.dtb_walker_cache.tags.dataAccesses         6634                       # Number of data accesses (Count)
system.cpu0.dtb_walker_cache.tags.power_state.pwrStateResidencyTicks::UNDEFINED 4861677121000                       # Cumulative time (in ticks) in various power states (Tick)
system.cpu0.exec_context.thread_0.numMatAluAccesses            0                       # Number of matrix alu accesses (Count)
system.cpu0.exec_context.thread_0.numCallsReturns      2758989                       # Number of times a function call or return occured (Count)
system.cpu0.exec_context.thread_0.numMatInsts            0                       # Number of matrix instructions (Count)
system.cpu0.exec_context.thread_0.numIdleCycles 9043091877.933224                       # Number of idle cycles (Cycle)
system.cpu0.exec_context.thread_0.numBusyCycles 681636397.066777                       # Number of busy cycles (Cycle)
system.cpu0.exec_context.thread_0.notIdleFraction     0.070093                       # Percentage of non-idle cycles (Ratio)
system.cpu0.exec_context.thread_0.idleFraction     0.929907                       # Percentage of idle cycles (Ratio)
system.cpu0.executeStats0.numInsts                  0                       # Number of executed instructions (Count)
system.cpu0.executeStats0.numNop                    0                       # Number of nop insts executed (Count)
system.cpu0.executeStats0.numBranches               0                       # Number of branches executed (Count)
system.cpu0.executeStats0.numLoadInsts              0                       # Number of load instructions executed (Count)
system.cpu0.executeStats0.numStoreInsts      89190573                       # Number of stores executed (Count)
system.cpu0.executeStats0.instRate                  0                       # Inst execution rate ((Count/Cycle))
system.cpu0.executeStats0.numFpAluAccesses        19965                       # Number of float alu accesses (Count)
system.cpu0.executeStats0.numFpRegReads         33297                       # Number of times the floating registers were read (Count)
system.cpu0.executeStats0.numFpRegWrites        15853                       # Number of times the floating registers were written (Count)
system.cpu0.executeStats0.numIntAluAccesses    540649576                       # Number of integer alu accesses (Count)
system.cpu0.executeStats0.numIntRegReads    506632644                       # Number of times the integer registers were read (Count)
system.cpu0.executeStats0.numIntRegWrites    385676231                       # Number of times the integer registers were written (Count)
system.cpu0.executeStats0.numMemRefs         89190573                       # Number of memory refs (Count)
system.cpu0.executeStats0.numMiscRegReads    274399905                       # Number of times the Misc registers were read (Count)
system.cpu0.executeStats0.numMiscRegWrites       220251                       # Number of times the Misc registers were written (Count)
system.cpu0.executeStats0.numVecAluAccesses            0                       # Number of vector alu accesses (Count)
system.cpu0.executeStats0.numDiscardedOps            0                       # Number of ops (including micro ops) which were discarded before commit (Count)
system.cpu0.fetchStats0.numInsts            230425676                       # Number of instructions fetched (thread level) (Count)
system.cpu0.fetchStats0.numOps              608694886                       # Number of ops (including micro ops) fetched (thread level) (Count)
system.cpu0.fetchStats0.fetchRate            0.023695                       # Number of inst fetches per cycle ((Count/Cycle))
system.cpu0.fetchStats0.numBranches          81153067                       # Number of branches fetched (Count)
system.cpu0.fetchStats0.branchRate           0.008345                       # Number of branch fetches per cycle (Ratio)
system.cpu0.fetchStats0.numFetchSuspends            0                       # Number of times Execute suspended instruction fetching (Count)
system.cpu0.icache.demandHits::cpu0.inst    304535080                       # number of demand (read+write) hits (Count)
system.cpu0.icache.demandHits::total        304535080                       # number of demand (read+write) hits (Count)
system.cpu0.icache.overallHits::cpu0.inst    304535080                       # number of overall hits (Count)
system.cpu0.icache.overallHits::total       304535080                       # number of overall hits (Count)
system.cpu0.icache.demandMisses::cpu0.inst       107468                       # number of demand (read+write) misses (Count)
system.cpu0.icache.demandMisses::total         107468                       # number of demand (read+write) misses (Count)
system.cpu0.icache.overallMisses::cpu0.inst       107468                       # number of overall misses (Count)
system.cpu0.icache.overallMisses::total        107468                       # number of overall misses (Count)
system.cpu0.icache.demandAccesses::cpu0.inst    304642548                       # number of demand (read+write) accesses (Count)
system.cpu0.icache.demandAccesses::total    304642548                       # number of demand (read+write) accesses (Count)
system.cpu0.icache.overallAccesses::cpu0.inst    304642548                       # number of overall (read+write) accesses (Count)
system.cpu0.icache.overallAccesses::total    304642548                       # number of overall (read+write) accesses (Count)
system.cpu0.icache.demandMissRate::cpu0.inst     0.000353                       # miss rate for demand accesses (Ratio)
system.cpu0.icache.demandMissRate::total     0.000353                       # miss rate for demand accesses (Ratio)
system.cpu0.icache.overallMissRate::cpu0.inst     0.000353                       # miss rate for overall accesses (Ratio)
system.cpu0.icache.overallMissRate::total     0.000353                       # miss rate for overall accesses (Ratio)
system.cpu0.icache.blockedCycles::no_mshrs            0                       # number of cycles access was blocked (Cycle)
system.cpu0.icache.blockedCycles::no_targets            0                       # number of cycles access was blocked (Cycle)
system.cpu0.icache.blockedCauses::no_mshrs            0                       # number of times access was blocked (Count)
system.cpu0.icache.blockedCauses::no_targets            0                       # number of times access was blocked (Count)
system.cpu0.icache.avgBlocked::no_mshrs           nan                       # average number of cycles each access was blocked ((Cycle/Count))
system.cpu0.icache.avgBlocked::no_targets          nan                       # average number of cycles each access was blocked ((Cycle/Count))
system.cpu0.icache.writebacks::writebacks       103375                       # number of writebacks (Count)
system.cpu0.icache.writebacks::total           103375                       # number of writebacks (Count)
system.cpu0.icache.replacements                103375                       # number of replacements (Count)
system.cpu0.icache.ReadReq.hits::cpu0.inst    304535080                       # number of ReadReq hits (Count)
system.cpu0.icache.ReadReq.hits::total      304535080                       # number of ReadReq hits (Count)
system.cpu0.icache.ReadReq.misses::cpu0.inst       107468                       # number of ReadReq misses (Count)
system.cpu0.icache.ReadReq.misses::total       107468                       # number of ReadReq misses (Count)
system.cpu0.icache.ReadReq.accesses::cpu0.inst    304642548                       # number of ReadReq accesses(hits+misses) (Count)
system.cpu0.icache.ReadReq.accesses::total    304642548                       # number of ReadReq accesses(hits+misses) (Count)
system.cpu0.icache.ReadReq.missRate::cpu0.inst     0.000353                       # miss rate for ReadReq accesses (Ratio)
system.cpu0.icache.ReadReq.missRate::total     0.000353                       # miss rate for ReadReq accesses (Ratio)
system.cpu0.icache.power_state.pwrStateResidencyTicks::UNDEFINED 4861677121000                       # Cumulative time (in ticks) in various power states (Tick)
system.cpu0.icache.tags.tagsInUse         2968.123832                       # Average ticks per tags in use ((Tick/Count))
system.cpu0.icache.tags.totalRefs           296284607                       # Total number of references to valid blocks. (Count)
system.cpu0.icache.tags.sampledRefs            103709                       # Sample count of references to valid blocks. (Count)
system.cpu0.icache.tags.avgRefs           2856.884234                       # Average number of references to valid blocks. ((Count/Count))
system.cpu0.icache.tags.warmupTick                  0                       # The tick when the warmup percentage was hit. (Tick)
system.cpu0.icache.tags.occupancies::cpu0.inst  2968.123832                       # Average occupied blocks per tick, per requestor ((Count/Tick))
system.cpu0.icache.tags.avgOccs::cpu0.inst     0.724640                       # Average percentage of cache occupancy ((Ratio/Tick))
system.cpu0.icache.tags.avgOccs::total       0.724640                       # Average percentage of cache occupancy ((Ratio/Tick))
system.cpu0.icache.tags.occupanciesTaskId::1024         3759                       # Occupied blocks per task id (Count)
system.cpu0.icache.tags.ageTaskId_1024::2           15                       # Occupied blocks per task id, per block age (Count)
system.cpu0.icache.tags.ageTaskId_1024::3         2824                       # Occupied blocks per task id, per block age (Count)
system.cpu0.icache.tags.ageTaskId_1024::4          920                       # Occupied blocks per task id, per block age (Count)
system.cpu0.icache.tags.ratioOccsTaskId::1024     0.917725                       # Ratio of occupied blocks and all blocks, per task id (Ratio)
system.cpu0.icache.tags.tagAccesses         304750016                       # Number of tag accesses (Count)
system.cpu0.icache.tags.dataAccesses        304750016                       # Number of data accesses (Count)
system.cpu0.icache.tags.power_state.pwrStateResidencyTicks::UNDEFINED 4861677121000                       # Cumulative time (in ticks) in various power states (Tick)
system.cpu0.interrupts.clk_domain.clock          8000                       # Clock period in ticks (Tick)
system.cpu0.itb_walker_cache.demandHits::cpu0.mmu.itb.walker         1172                       # number of demand (read+write) hits (Count)
system.cpu0.itb_walker_cache.demandHits::total         1172                       # number of demand (read+write) hits (Count)
system.cpu0.itb_walker_cache.overallHits::cpu0.mmu.itb.walker         1172                       # number of overall hits (Count)
system.cpu0.itb_walker_cache.overallHits::total         1172                       # number of overall hits (Count)
system.cpu0.itb_walker_cache.demandMisses::cpu0.mmu.itb.walker         1897                       # number of demand (read+write) misses (Count)
system.cpu0.itb_walker_cache.demandMisses::total         1897                       # number of demand (read+write) misses (Count)
system.cpu0.itb_walker_cache.overallMisses::cpu0.mmu.itb.walker         1897                       # number of overall misses (Count)
system.cpu0.itb_walker_cache.overallMisses::total         1897                       # number of overall misses (Count)
system.cpu0.itb_walker_cache.demandAccesses::cpu0.mmu.itb.walker         3069                       # number of demand (read+write) accesses (Count)
system.cpu0.itb_walker_cache.demandAccesses::total         3069                       # number of demand (read+write) accesses (Count)
system.cpu0.itb_walker_cache.overallAccesses::cpu0.mmu.itb.walker         3069                       # number of overall (read+write) accesses (Count)
system.cpu0.itb_walker_cache.overallAccesses::total         3069                       # number of overall (read+write) accesses (Count)
system.cpu0.itb_walker_cache.demandMissRate::cpu0.mmu.itb.walker     0.618117                       # miss rate for demand accesses (Ratio)
system.cpu0.itb_walker_cache.demandMissRate::total     0.618117                       # miss rate for demand accesses (Ratio)
system.cpu0.itb_walker_cache.overallMissRate::cpu0.mmu.itb.walker     0.618117                       # miss rate for overall accesses (Ratio)
system.cpu0.itb_walker_cache.overallMissRate::total     0.618117                       # miss rate for overall accesses (Ratio)
system.cpu0.itb_walker_cache.blockedCycles::no_mshrs            0                       # number of cycles access was blocked (Cycle)
system.cpu0.itb_walker_cache.blockedCycles::no_targets            0                       # number of cycles access was blocked (Cycle)
system.cpu0.itb_walker_cache.blockedCauses::no_mshrs            0                       # number of times access was blocked (Count)
system.cpu0.itb_walker_cache.blockedCauses::no_targets            0                       # number of times access was blocked (Count)
system.cpu0.itb_walker_cache.avgBlocked::no_mshrs          nan                       # average number of cycles each access was blocked ((Cycle/Count))
system.cpu0.itb_walker_cache.avgBlocked::no_targets          nan                       # average number of cycles each access was blocked ((Cycle/Count))
system.cpu0.itb_walker_cache.writebacks::writebacks            3                       # number of writebacks (Count)
system.cpu0.itb_walker_cache.writebacks::total            3                       # number of writebacks (Count)
system.cpu0.itb_walker_cache.replacements         1695                       # number of replacements (Count)
system.cpu0.itb_walker_cache.ReadReq.hits::cpu0.mmu.itb.walker         1170                       # number of ReadReq hits (Count)
system.cpu0.itb_walker_cache.ReadReq.hits::total         1170                       # number of ReadReq hits (Count)
system.cpu0.itb_walker_cache.ReadReq.misses::cpu0.mmu.itb.walker         1897                       # number of ReadReq misses (Count)
system.cpu0.itb_walker_cache.ReadReq.misses::total         1897                       # number of ReadReq misses (Count)
system.cpu0.itb_walker_cache.ReadReq.accesses::cpu0.mmu.itb.walker         3067                       # number of ReadReq accesses(hits+misses) (Count)
system.cpu0.itb_walker_cache.ReadReq.accesses::total         3067                       # number of ReadReq accesses(hits+misses) (Count)
system.cpu0.itb_walker_cache.ReadReq.missRate::cpu0.mmu.itb.walker     0.618520                       # miss rate for ReadReq accesses (Ratio)
system.cpu0.itb_walker_cache.ReadReq.missRate::total     0.618520                       # miss rate for ReadReq accesses (Ratio)
system.cpu0.itb_walker_cache.WriteReq.hits::cpu0.mmu.itb.walker            2                       # number of WriteReq hits (Count)
system.cpu0.itb_walker_cache.WriteReq.hits::total            2                       # number of WriteReq hits (Count)
system.cpu0.itb_walker_cache.WriteReq.accesses::cpu0.mmu.itb.walker            2                       # number of WriteReq accesses(hits+misses) (Count)
system.cpu0.itb_walker_cache.WriteReq.accesses::total            2                       # number of WriteReq accesses(hits+misses) (Count)
system.cpu0.itb_walker_cache.power_state.pwrStateResidencyTicks::UNDEFINED 4861677121000                       # Cumulative time (in ticks) in various power states (Tick)
system.cpu0.itb_walker_cache.tags.tagsInUse     4.009125                       # Average ticks per tags in use ((Tick/Count))
system.cpu0.itb_walker_cache.tags.totalRefs         3065                       # Total number of references to valid blocks. (Count)
system.cpu0.itb_walker_cache.tags.sampledRefs         1896                       # Sample count of references to valid blocks. (Count)
system.cpu0.itb_walker_cache.tags.avgRefs     1.616561                       # Average number of references to valid blocks. ((Count/Count))
system.cpu0.itb_walker_cache.tags.warmupTick            0                       # The tick when the warmup percentage was hit. (Tick)
system.cpu0.itb_walker_cache.tags.occupancies::cpu0.mmu.itb.walker     4.009125                       # Average occupied blocks per tick, per requestor ((Count/Tick))
system.cpu0.itb_walker_cache.tags.avgOccs::cpu0.mmu.itb.walker     0.250570                       # Average percentage of cache occupancy ((Ratio/Tick))
system.cpu0.itb_walker_cache.tags.avgOccs::total     0.250570                       # Average percentage of cache occupancy ((Ratio/Tick))
system.cpu0.itb_walker_cache.tags.occupanciesTaskId::1024            1                       # Occupied blocks per task id (Count)
system.cpu0.itb_walker_cache.tags.ageTaskId_1024::3            1                       # Occupied blocks per task id, per block age (Count)
system.cpu0.itb_walker_cache.tags.ratioOccsTaskId::1024     0.062500                       # Ratio of occupied blocks and all blocks, per task id (Ratio)
system.cpu0.itb_walker_cache.tags.tagAccesses         8035                       # Number of tag accesses (Count)
system.cpu0.itb_walker_cache.tags.dataAccesses         8035                       # Number of data accesses (Count)
system.cpu0.itb_walker_cache.tags.power_state.pwrStateResidencyTicks::UNDEFINED 4861677121000                       # Cumulative time (in ticks) in various power states (Tick)
system.cpu0.mmu.dtb.rdAccesses               65102210                       # TLB accesses on read requests (Count)
system.cpu0.mmu.dtb.wrAccesses               21154164                       # TLB accesses on write requests (Count)
system.cpu0.mmu.dtb.rdMisses                      650                       # TLB misses on read requests (Count)
system.cpu0.mmu.dtb.wrMisses                      149                       # TLB misses on write requests (Count)
system.cpu0.mmu.dtb.walker.power_state.pwrStateResidencyTicks::UNDEFINED 4861677121000                       # Cumulative time (in ticks) in various power states (Tick)
system.cpu0.mmu.itb.rdAccesses                      0                       # TLB accesses on read requests (Count)
system.cpu0.mmu.itb.wrAccesses              304642723                       # TLB accesses on write requests (Count)
system.cpu0.mmu.itb.rdMisses                        0                       # TLB misses on read requests (Count)
system.cpu0.mmu.itb.wrMisses                      776                       # TLB misses on write requests (Count)
system.cpu0.mmu.itb.walker.power_state.pwrStateResidencyTicks::UNDEFINED 4861677121000                       # Cumulative time (in ticks) in various power states (Tick)
system.cpu0.power_state.numTransitions          20196                       # Number of power state transitions (Count)
system.cpu0.power_state.ticksClkGated::samples        10050                       # Distribution of time spent in the clock gated state (Tick)
system.cpu0.power_state.ticksClkGated::mean 449841500.257413                       # Distribution of time spent in the clock gated state (Tick)
system.cpu0.power_state.ticksClkGated::stdev 1240191946.195308                       # Distribution of time spent in the clock gated state (Tick)
system.cpu0.power_state.ticksClkGated::1000-5e+10        10050    100.00%    100.00% # Distribution of time spent in the clock gated state (Tick)
system.cpu0.power_state.ticksClkGated::min_value       114000                       # Distribution of time spent in the clock gated state (Tick)
system.cpu0.power_state.ticksClkGated::max_value   3995114000                       # Distribution of time spent in the clock gated state (Tick)
system.cpu0.power_state.ticksClkGated::total        10050                       # Distribution of time spent in the clock gated state (Tick)
system.cpu0.power_state.pwrStateResidencyTicks::ON 340770043413                       # Cumulative time (in ticks) in various power states (Tick)
system.cpu0.power_state.pwrStateResidencyTicks::CLK_GATED 4520907077587                       # Cumulative time (in ticks) in various power states (Tick)
system.cpu0.thread_0.numInsts                       0                       # Number of Instructions committed (Count)
system.cpu0.thread_0.numOps                         0                       # Number of Ops committed (Count)
system.cpu0.thread_0.numMemRefs                     0                       # Number of Memory References (Count)
system.cpu1.numCycles                      9723264953                       # Number of cpu cycles simulated (Cycle)
system.cpu1.cpi                            683.952446                       # CPI: cycles per instruction (core level) ((Cycle/Count))
system.cpu1.ipc                              0.001462                       # IPC: instructions per cycle (core level) ((Count/Cycle))
system.cpu1.numWorkItemsStarted                     0                       # Number of work items this cpu started (Count)
system.cpu1.numWorkItemsCompleted                   0                       # Number of work items this cpu completed (Count)
system.cpu1.commitStats0.numInsts            14216288                       # Number of instructions committed (thread level) (Count)
system.cpu1.commitStats0.numOps              30122162                       # Number of ops (including micro ops) committed (thread level) (Count)
system.cpu1.commitStats0.numInstsNotNOP             0                       # Number of instructions committed excluding NOPs or prefetches (Count)
system.cpu1.commitStats0.numOpsNotNOP               0                       # Number of Ops (including micro ops) Simulated (Count)
system.cpu1.commitStats0.cpi               683.952446                       # CPI: cycles per instruction (thread level) ((Cycle/Count))
system.cpu1.commitStats0.ipc                 0.001462                       # IPC: instructions per cycle (thread level) ((Count/Cycle))
system.cpu1.commitStats0.numMemRefs                 0                       # Number of memory references committed (Count)
system.cpu1.commitStats0.numFpInsts              3108                       # Number of float instructions (Count)
system.cpu1.commitStats0.numIntInsts         29176589                       # Number of integer instructions (Count)
system.cpu1.commitStats0.numLoadInsts         4458970                       # Number of load instructions (Count)
system.cpu1.commitStats0.numStoreInsts        2768944                       # Number of store instructions (Count)
system.cpu1.commitStats0.numVecInsts                0                       # Number of vector instructions (Count)
system.cpu1.commitStats0.committedInstType::No_OpClass        59911      0.20%      0.20% # Class of committed instruction. (Count)
system.cpu1.commitStats0.committedInstType::IntAlu     22761406     75.56%     75.76% # Class of committed instruction. (Count)
system.cpu1.commitStats0.committedInstType::IntMult        59604      0.20%     75.96% # Class of committed instruction. (Count)
system.cpu1.commitStats0.committedInstType::IntDiv        14242      0.05%     76.01% # Class of committed instruction. (Count)
system.cpu1.commitStats0.committedInstType::FloatAdd           87      0.00%     76.01% # Class of committed instruction. (Count)
system.cpu1.commitStats0.committedInstType::FloatCmp            0      0.00%     76.01% # Class of committed instruction. (Count)
system.cpu1.commitStats0.committedInstType::FloatCvt           16      0.00%     76.01% # Class of committed instruction. (Count)
system.cpu1.commitStats0.committedInstType::FloatMult            0      0.00%     76.01% # Class of committed instruction. (Count)
system.cpu1.commitStats0.committedInstType::FloatMultAcc            0      0.00%     76.01% # Class of committed instruction. (Count)
system.cpu1.commitStats0.committedInstType::FloatDiv            0      0.00%     76.01% # Class of committed instruction. (Count)
system.cpu1.commitStats0.committedInstType::FloatMisc            0      0.00%     76.01% # Class of committed instruction. (Count)
system.cpu1.commitStats0.committedInstType::FloatSqrt            0      0.00%     76.01% # Class of committed instruction. (Count)
system.cpu1.commitStats0.committedInstType::SimdAdd           56      0.00%     76.01% # Class of committed instruction. (Count)
system.cpu1.commitStats0.committedInstType::SimdAddAcc            0      0.00%     76.01% # Class of committed instruction. (Count)
system.cpu1.commitStats0.committedInstType::SimdAlu          274      0.00%     76.01% # Class of committed instruction. (Count)
system.cpu1.commitStats0.committedInstType::SimdCmp            0      0.00%     76.01% # Class of committed instruction. (Count)
system.cpu1.commitStats0.committedInstType::SimdCvt          642      0.00%     76.01% # Class of committed instruction. (Count)
system.cpu1.commitStats0.committedInstType::SimdMisc         1195      0.00%     76.02% # Class of committed instruction. (Count)
system.cpu1.commitStats0.committedInstType::SimdMult            0      0.00%     76.02% # Class of committed instruction. (Count)
system.cpu1.commitStats0.committedInstType::SimdMultAcc            0      0.00%     76.02% # Class of committed instruction. (Count)
system.cpu1.commitStats0.committedInstType::SimdMatMultAcc            0      0.00%     76.02% # Class of committed instruction. (Count)
system.cpu1.commitStats0.committedInstType::SimdShift           48      0.00%     76.02% # Class of committed instruction. (Count)
system.cpu1.commitStats0.committedInstType::SimdShiftAcc            0      0.00%     76.02% # Class of committed instruction. (Count)
system.cpu1.commitStats0.committedInstType::SimdDiv            0      0.00%     76.02% # Class of committed instruction. (Count)
system.cpu1.commitStats0.committedInstType::SimdSqrt            0      0.00%     76.02% # Class of committed instruction. (Count)
system.cpu1.commitStats0.committedInstType::SimdFloatAdd            0      0.00%     76.02% # Class of committed instruction. (Count)
system.cpu1.commitStats0.committedInstType::SimdFloatAlu            0      0.00%     76.02% # Class of committed instruction. (Count)
system.cpu1.commitStats0.committedInstType::SimdFloatCmp            0      0.00%     76.02% # Class of committed instruction. (Count)
system.cpu1.commitStats0.committedInstType::SimdFloatCvt            0      0.00%     76.02% # Class of committed instruction. (Count)
system.cpu1.commitStats0.committedInstType::SimdFloatDiv            0      0.00%     76.02% # Class of committed instruction. (Count)
system.cpu1.commitStats0.committedInstType::SimdFloatMisc            0      0.00%     76.02% # Class of committed instruction. (Count)
system.cpu1.commitStats0.committedInstType::SimdFloatMult            0      0.00%     76.02% # Class of committed instruction. (Count)
system.cpu1.commitStats0.committedInstType::SimdFloatMultAcc            0      0.00%     76.02% # Class of committed instruction. (Count)
system.cpu1.commitStats0.committedInstType::SimdFloatMatMultAcc            0      0.00%     76.02% # Class of committed instruction. (Count)
system.cpu1.commitStats0.committedInstType::SimdFloatSqrt            0      0.00%     76.02% # Class of committed instruction. (Count)
system.cpu1.commitStats0.committedInstType::SimdReduceAdd            0      0.00%     76.02% # Class of committed instruction. (Count)
system.cpu1.commitStats0.committedInstType::SimdReduceAlu            0      0.00%     76.02% # Class of committed instruction. (Count)
system.cpu1.commitStats0.committedInstType::SimdReduceCmp            0      0.00%     76.02% # Class of committed instruction. (Count)
system.cpu1.commitStats0.committedInstType::SimdFloatReduceAdd            0      0.00%     76.02% # Class of committed instruction. (Count)
system.cpu1.commitStats0.committedInstType::SimdFloatReduceCmp            0      0.00%     76.02% # Class of committed instruction. (Count)
system.cpu1.commitStats0.committedInstType::SimdAes            0      0.00%     76.02% # Class of committed instruction. (Count)
system.cpu1.commitStats0.committedInstType::SimdAesMix            0      0.00%     76.02% # Class of committed instruction. (Count)
system.cpu1.commitStats0.committedInstType::SimdSha1Hash            0      0.00%     76.02% # Class of committed instruction. (Count)
system.cpu1.commitStats0.committedInstType::SimdSha1Hash2            0      0.00%     76.02% # Class of committed instruction. (Count)
system.cpu1.commitStats0.committedInstType::SimdSha256Hash            0      0.00%     76.02% # Class of committed instruction. (Count)
system.cpu1.commitStats0.committedInstType::SimdSha256Hash2            0      0.00%     76.02% # Class of committed instruction. (Count)
system.cpu1.commitStats0.committedInstType::SimdShaSigma2            0      0.00%     76.02% # Class of committed instruction. (Count)
system.cpu1.commitStats0.committedInstType::SimdShaSigma3            0      0.00%     76.02% # Class of committed instruction. (Count)
system.cpu1.commitStats0.committedInstType::SimdPredAlu            0      0.00%     76.02% # Class of committed instruction. (Count)
system.cpu1.commitStats0.committedInstType::Matrix            0      0.00%     76.02% # Class of committed instruction. (Count)
system.cpu1.commitStats0.committedInstType::MatrixMov            0      0.00%     76.02% # Class of committed instruction. (Count)
system.cpu1.commitStats0.committedInstType::MatrixOP            0      0.00%     76.02% # Class of committed instruction. (Count)
system.cpu1.commitStats0.committedInstType::MemRead      4455338     14.79%     90.81% # Class of committed instruction. (Count)
system.cpu1.commitStats0.committedInstType::MemWrite      2768912      9.19%    100.00% # Class of committed instruction. (Count)
system.cpu1.commitStats0.committedInstType::FloatMemRead          399      0.00%    100.00% # Class of committed instruction. (Count)
system.cpu1.commitStats0.committedInstType::FloatMemWrite           32      0.00%    100.00% # Class of committed instruction. (Count)
system.cpu1.commitStats0.committedInstType::IprAccess            0      0.00%    100.00% # Class of committed instruction. (Count)
system.cpu1.commitStats0.committedInstType::InstPrefetch            0      0.00%    100.00% # Class of committed instruction. (Count)
system.cpu1.commitStats0.committedInstType::VectorUnitStrideLoad            0      0.00%    100.00% # Class of committed instruction. (Count)
system.cpu1.commitStats0.committedInstType::VectorUnitStrideStore            0      0.00%    100.00% # Class of committed instruction. (Count)
system.cpu1.commitStats0.committedInstType::VectorUnitStrideMaskLoad            0      0.00%    100.00% # Class of committed instruction. (Count)
system.cpu1.commitStats0.committedInstType::VectorUnitStrideMaskStore            0      0.00%    100.00% # Class of committed instruction. (Count)
system.cpu1.commitStats0.committedInstType::VectorStridedLoad            0      0.00%    100.00% # Class of committed instruction. (Count)
system.cpu1.commitStats0.committedInstType::VectorStridedStore            0      0.00%    100.00% # Class of committed instruction. (Count)
system.cpu1.commitStats0.committedInstType::VectorIndexedLoad            0      0.00%    100.00% # Class of committed instruction. (Count)
system.cpu1.commitStats0.committedInstType::VectorIndexedStore            0      0.00%    100.00% # Class of committed instruction. (Count)
system.cpu1.commitStats0.committedInstType::VectorUnitStrideFaultOnlyFirstLoad            0      0.00%    100.00% # Class of committed instruction. (Count)
system.cpu1.commitStats0.committedInstType::VectorWholeRegisterLoad            0      0.00%    100.00% # Class of committed instruction. (Count)
system.cpu1.commitStats0.committedInstType::VectorWholeRegisterStore            0      0.00%    100.00% # Class of committed instruction. (Count)
system.cpu1.commitStats0.committedInstType::VectorIntegerArith            0      0.00%    100.00% # Class of committed instruction. (Count)
system.cpu1.commitStats0.committedInstType::VectorFloatArith            0      0.00%    100.00% # Class of committed instruction. (Count)
system.cpu1.commitStats0.committedInstType::VectorFloatConvert            0      0.00%    100.00% # Class of committed instruction. (Count)
system.cpu1.commitStats0.committedInstType::VectorIntegerReduce            0      0.00%    100.00% # Class of committed instruction. (Count)
system.cpu1.commitStats0.committedInstType::VectorFloatReduce            0      0.00%    100.00% # Class of committed instruction. (Count)
system.cpu1.commitStats0.committedInstType::VectorMisc            0      0.00%    100.00% # Class of committed instruction. (Count)
system.cpu1.commitStats0.committedInstType::VectorIntegerExtension            0      0.00%    100.00% # Class of committed instruction. (Count)
system.cpu1.commitStats0.committedInstType::VectorConfig            0      0.00%    100.00% # Class of committed instruction. (Count)
system.cpu1.commitStats0.committedInstType::total     30122162                       # Class of committed instruction. (Count)
system.cpu1.commitStats0.committedControl::IsControl      3202847                       # Class of control type instructions committed (Count)
system.cpu1.commitStats0.committedControl::IsDirectControl      2824662                       # Class of control type instructions committed (Count)
system.cpu1.commitStats0.committedControl::IsIndirectControl       374053                       # Class of control type instructions committed (Count)
system.cpu1.commitStats0.committedControl::IsCondControl      2283998                       # Class of control type instructions committed (Count)
system.cpu1.commitStats0.committedControl::IsUncondControl       917616                       # Class of control type instructions committed (Count)
system.cpu1.commitStats0.committedControl::IsCall       336575                       # Class of control type instructions committed (Count)
system.cpu1.commitStats0.committedControl::IsReturn       336334                       # Class of control type instructions committed (Count)
system.cpu1.dcache.demandHits::cpu1.data      6841920                       # number of demand (read+write) hits (Count)
system.cpu1.dcache.demandHits::total          6841920                       # number of demand (read+write) hits (Count)
system.cpu1.dcache.overallHits::cpu1.data      6844307                       # number of overall hits (Count)
system.cpu1.dcache.overallHits::total         6844307                       # number of overall hits (Count)
system.cpu1.dcache.demandMisses::cpu1.data       230944                       # number of demand (read+write) misses (Count)
system.cpu1.dcache.demandMisses::total         230944                       # number of demand (read+write) misses (Count)
system.cpu1.dcache.overallMisses::cpu1.data       237398                       # number of overall misses (Count)
system.cpu1.dcache.overallMisses::total        237398                       # number of overall misses (Count)
system.cpu1.dcache.demandAccesses::cpu1.data      7072864                       # number of demand (read+write) accesses (Count)
system.cpu1.dcache.demandAccesses::total      7072864                       # number of demand (read+write) accesses (Count)
system.cpu1.dcache.overallAccesses::cpu1.data      7081705                       # number of overall (read+write) accesses (Count)
system.cpu1.dcache.overallAccesses::total      7081705                       # number of overall (read+write) accesses (Count)
system.cpu1.dcache.demandMissRate::cpu1.data     0.032652                       # miss rate for demand accesses (Ratio)
system.cpu1.dcache.demandMissRate::total     0.032652                       # miss rate for demand accesses (Ratio)
system.cpu1.dcache.overallMissRate::cpu1.data     0.033523                       # miss rate for overall accesses (Ratio)
system.cpu1.dcache.overallMissRate::total     0.033523                       # miss rate for overall accesses (Ratio)
system.cpu1.dcache.blockedCycles::no_mshrs            0                       # number of cycles access was blocked (Cycle)
system.cpu1.dcache.blockedCycles::no_targets            0                       # number of cycles access was blocked (Cycle)
system.cpu1.dcache.blockedCauses::no_mshrs            0                       # number of times access was blocked (Count)
system.cpu1.dcache.blockedCauses::no_targets            0                       # number of times access was blocked (Count)
system.cpu1.dcache.avgBlocked::no_mshrs           nan                       # average number of cycles each access was blocked ((Cycle/Count))
system.cpu1.dcache.avgBlocked::no_targets          nan                       # average number of cycles each access was blocked ((Cycle/Count))
system.cpu1.dcache.writebacks::writebacks        13248                       # number of writebacks (Count)
system.cpu1.dcache.writebacks::total            13248                       # number of writebacks (Count)
system.cpu1.dcache.replacements                 14618                       # number of replacements (Count)
system.cpu1.dcache.LockedRMWReadReq.hits::cpu1.data        44793                       # number of LockedRMWReadReq hits (Count)
system.cpu1.dcache.LockedRMWReadReq.hits::total        44793                       # number of LockedRMWReadReq hits (Count)
system.cpu1.dcache.LockedRMWReadReq.misses::cpu1.data        31872                       # number of LockedRMWReadReq misses (Count)
system.cpu1.dcache.LockedRMWReadReq.misses::total        31872                       # number of LockedRMWReadReq misses (Count)
system.cpu1.dcache.LockedRMWReadReq.accesses::cpu1.data        76665                       # number of LockedRMWReadReq accesses(hits+misses) (Count)
system.cpu1.dcache.LockedRMWReadReq.accesses::total        76665                       # number of LockedRMWReadReq accesses(hits+misses) (Count)
system.cpu1.dcache.LockedRMWReadReq.missRate::cpu1.data     0.415731                       # miss rate for LockedRMWReadReq accesses (Ratio)
system.cpu1.dcache.LockedRMWReadReq.missRate::total     0.415731                       # miss rate for LockedRMWReadReq accesses (Ratio)
system.cpu1.dcache.LockedRMWWriteReq.hits::cpu1.data        76665                       # number of LockedRMWWriteReq hits (Count)
system.cpu1.dcache.LockedRMWWriteReq.hits::total        76665                       # number of LockedRMWWriteReq hits (Count)
system.cpu1.dcache.LockedRMWWriteReq.accesses::cpu1.data        76665                       # number of LockedRMWWriteReq accesses(hits+misses) (Count)
system.cpu1.dcache.LockedRMWWriteReq.accesses::total        76665                       # number of LockedRMWWriteReq accesses(hits+misses) (Count)
system.cpu1.dcache.ReadReq.hits::cpu1.data      4268773                       # number of ReadReq hits (Count)
system.cpu1.dcache.ReadReq.hits::total        4268773                       # number of ReadReq hits (Count)
system.cpu1.dcache.ReadReq.misses::cpu1.data       108885                       # number of ReadReq misses (Count)
system.cpu1.dcache.ReadReq.misses::total       108885                       # number of ReadReq misses (Count)
system.cpu1.dcache.ReadReq.accesses::cpu1.data      4377658                       # number of ReadReq accesses(hits+misses) (Count)
system.cpu1.dcache.ReadReq.accesses::total      4377658                       # number of ReadReq accesses(hits+misses) (Count)
system.cpu1.dcache.ReadReq.missRate::cpu1.data     0.024873                       # miss rate for ReadReq accesses (Ratio)
system.cpu1.dcache.ReadReq.missRate::total     0.024873                       # miss rate for ReadReq accesses (Ratio)
system.cpu1.dcache.SoftPFReq.hits::cpu1.data         2387                       # number of SoftPFReq hits (Count)
system.cpu1.dcache.SoftPFReq.hits::total         2387                       # number of SoftPFReq hits (Count)
system.cpu1.dcache.SoftPFReq.misses::cpu1.data         6454                       # number of SoftPFReq misses (Count)
system.cpu1.dcache.SoftPFReq.misses::total         6454                       # number of SoftPFReq misses (Count)
system.cpu1.dcache.SoftPFReq.accesses::cpu1.data         8841                       # number of SoftPFReq accesses(hits+misses) (Count)
system.cpu1.dcache.SoftPFReq.accesses::total         8841                       # number of SoftPFReq accesses(hits+misses) (Count)
system.cpu1.dcache.SoftPFReq.missRate::cpu1.data     0.730008                       # miss rate for SoftPFReq accesses (Ratio)
system.cpu1.dcache.SoftPFReq.missRate::total     0.730008                       # miss rate for SoftPFReq accesses (Ratio)
system.cpu1.dcache.WriteReq.hits::cpu1.data      2573147                       # number of WriteReq hits (Count)
system.cpu1.dcache.WriteReq.hits::total       2573147                       # number of WriteReq hits (Count)
system.cpu1.dcache.WriteReq.misses::cpu1.data       122059                       # number of WriteReq misses (Count)
system.cpu1.dcache.WriteReq.misses::total       122059                       # number of WriteReq misses (Count)
system.cpu1.dcache.WriteReq.accesses::cpu1.data      2695206                       # number of WriteReq accesses(hits+misses) (Count)
system.cpu1.dcache.WriteReq.accesses::total      2695206                       # number of WriteReq accesses(hits+misses) (Count)
system.cpu1.dcache.WriteReq.missRate::cpu1.data     0.045287                       # miss rate for WriteReq accesses (Ratio)
system.cpu1.dcache.WriteReq.missRate::total     0.045287                       # miss rate for WriteReq accesses (Ratio)
system.cpu1.dcache.power_state.pwrStateResidencyTicks::UNDEFINED 4861677121000                       # Cumulative time (in ticks) in various power states (Tick)
system.cpu1.dcache.tags.tagsInUse         5975.765216                       # Average ticks per tags in use ((Tick/Count))
system.cpu1.dcache.tags.totalRefs             2848927                       # Total number of references to valid blocks. (Count)
system.cpu1.dcache.tags.sampledRefs            195223                       # Sample count of references to valid blocks. (Count)
system.cpu1.dcache.tags.avgRefs             14.593193                       # Average number of references to valid blocks. ((Count/Count))
system.cpu1.dcache.tags.warmupTick       328865020000                       # The tick when the warmup percentage was hit. (Tick)
system.cpu1.dcache.tags.occupancies::cpu1.data  5975.765216                       # Average occupied blocks per tick, per requestor ((Count/Tick))
system.cpu1.dcache.tags.avgOccs::cpu1.data     0.729464                       # Average percentage of cache occupancy ((Ratio/Tick))
system.cpu1.dcache.tags.avgOccs::total       0.729464                       # Average percentage of cache occupancy ((Ratio/Tick))
system.cpu1.dcache.tags.occupanciesTaskId::1024         7487                       # Occupied blocks per task id (Count)
system.cpu1.dcache.tags.ageTaskId_1024::2         2328                       # Occupied blocks per task id, per block age (Count)
system.cpu1.dcache.tags.ageTaskId_1024::3         1419                       # Occupied blocks per task id, per block age (Count)
system.cpu1.dcache.tags.ageTaskId_1024::4         3740                       # Occupied blocks per task id, per block age (Count)
system.cpu1.dcache.tags.ratioOccsTaskId::1024     0.913940                       # Ratio of occupied blocks and all blocks, per task id (Ratio)
system.cpu1.dcache.tags.tagAccesses          58082990                       # Number of tag accesses (Count)
system.cpu1.dcache.tags.dataAccesses         58082990                       # Number of data accesses (Count)
system.cpu1.dcache.tags.power_state.pwrStateResidencyTicks::UNDEFINED 4861677121000                       # Cumulative time (in ticks) in various power states (Tick)
system.cpu1.dtb_walker_cache.demandHits::cpu1.mmu.dtb.walker          254                       # number of demand (read+write) hits (Count)
system.cpu1.dtb_walker_cache.demandHits::total          254                       # number of demand (read+write) hits (Count)
system.cpu1.dtb_walker_cache.overallHits::cpu1.mmu.dtb.walker          254                       # number of overall hits (Count)
system.cpu1.dtb_walker_cache.overallHits::total          254                       # number of overall hits (Count)
system.cpu1.dtb_walker_cache.demandMisses::cpu1.mmu.dtb.walker          436                       # number of demand (read+write) misses (Count)
system.cpu1.dtb_walker_cache.demandMisses::total          436                       # number of demand (read+write) misses (Count)
system.cpu1.dtb_walker_cache.overallMisses::cpu1.mmu.dtb.walker          436                       # number of overall misses (Count)
system.cpu1.dtb_walker_cache.overallMisses::total          436                       # number of overall misses (Count)
system.cpu1.dtb_walker_cache.demandAccesses::cpu1.mmu.dtb.walker          690                       # number of demand (read+write) accesses (Count)
system.cpu1.dtb_walker_cache.demandAccesses::total          690                       # number of demand (read+write) accesses (Count)
system.cpu1.dtb_walker_cache.overallAccesses::cpu1.mmu.dtb.walker          690                       # number of overall (read+write) accesses (Count)
system.cpu1.dtb_walker_cache.overallAccesses::total          690                       # number of overall (read+write) accesses (Count)
system.cpu1.dtb_walker_cache.demandMissRate::cpu1.mmu.dtb.walker     0.631884                       # miss rate for demand accesses (Ratio)
system.cpu1.dtb_walker_cache.demandMissRate::total     0.631884                       # miss rate for demand accesses (Ratio)
system.cpu1.dtb_walker_cache.overallMissRate::cpu1.mmu.dtb.walker     0.631884                       # miss rate for overall accesses (Ratio)
system.cpu1.dtb_walker_cache.overallMissRate::total     0.631884                       # miss rate for overall accesses (Ratio)
system.cpu1.dtb_walker_cache.blockedCycles::no_mshrs            0                       # number of cycles access was blocked (Cycle)
system.cpu1.dtb_walker_cache.blockedCycles::no_targets            0                       # number of cycles access was blocked (Cycle)
system.cpu1.dtb_walker_cache.blockedCauses::no_mshrs            0                       # number of times access was blocked (Count)
system.cpu1.dtb_walker_cache.blockedCauses::no_targets            0                       # number of times access was blocked (Count)
system.cpu1.dtb_walker_cache.avgBlocked::no_mshrs          nan                       # average number of cycles each access was blocked ((Cycle/Count))
system.cpu1.dtb_walker_cache.avgBlocked::no_targets          nan                       # average number of cycles each access was blocked ((Cycle/Count))
system.cpu1.dtb_walker_cache.replacements          333                       # number of replacements (Count)
system.cpu1.dtb_walker_cache.ReadReq.hits::cpu1.mmu.dtb.walker          254                       # number of ReadReq hits (Count)
system.cpu1.dtb_walker_cache.ReadReq.hits::total          254                       # number of ReadReq hits (Count)
system.cpu1.dtb_walker_cache.ReadReq.misses::cpu1.mmu.dtb.walker          436                       # number of ReadReq misses (Count)
system.cpu1.dtb_walker_cache.ReadReq.misses::total          436                       # number of ReadReq misses (Count)
system.cpu1.dtb_walker_cache.ReadReq.accesses::cpu1.mmu.dtb.walker          690                       # number of ReadReq accesses(hits+misses) (Count)
system.cpu1.dtb_walker_cache.ReadReq.accesses::total          690                       # number of ReadReq accesses(hits+misses) (Count)
system.cpu1.dtb_walker_cache.ReadReq.missRate::cpu1.mmu.dtb.walker     0.631884                       # miss rate for ReadReq accesses (Ratio)
[...]
system.tol2bus.pktSize_system.cpu2.dcache.mem_side_port::system.l2.cpu_side_port        25040                       # Cumulative packet size per connected requestor and responder (Byte)
system.tol2bus.pktSize_system.cpu2.itb_walker_cache.mem_side_port::system.l2.cpu_side_port          128                       # Cumulative packet size per connected requestor and responder (Byte)
system.tol2bus.pktSize_system.cpu2.dtb_walker_cache.mem_side_port::system.l2.cpu_side_port         1472                       # Cumulative packet size per connected requestor and responder (Byte)
system.tol2bus.pktSize_system.cpu3.icache.mem_side_port::system.l2.cpu_side_port        21056                       # Cumulative packet size per connected requestor and responder (Byte)
system.tol2bus.pktSize_system.cpu3.dcache.mem_side_port::system.l2.cpu_side_port         2312                       # Cumulative packet size per connected requestor and responder (Byte)
system.tol2bus.pktSize_system.cpu3.itb_walker_cache.mem_side_port::system.l2.cpu_side_port          192                       # Cumulative packet size per connected requestor and responder (Byte)
system.tol2bus.pktSize_system.cpu3.dtb_walker_cache.mem_side_port::system.l2.cpu_side_port         1024                       # Cumulative packet size per connected requestor and responder (Byte)
system.tol2bus.pktSize_system.cpu4.icache.mem_side_port::system.l2.cpu_side_port        66176                       # Cumulative packet size per connected requestor and responder (Byte)
system.tol2bus.pktSize_system.cpu4.dcache.mem_side_port::system.l2.cpu_side_port        39632                       # Cumulative packet size per connected requestor and responder (Byte)
system.tol2bus.pktSize_system.cpu4.itb_walker_cache.mem_side_port::system.l2.cpu_side_port          320                       # Cumulative packet size per connected requestor and responder (Byte)
system.tol2bus.pktSize_system.cpu4.dtb_walker_cache.mem_side_port::system.l2.cpu_side_port         1408                       # Cumulative packet size per connected requestor and responder (Byte)
system.tol2bus.pktSize_system.cpu5.icache.mem_side_port::system.l2.cpu_side_port         1280                       # Cumulative packet size per connected requestor and responder (Byte)
system.tol2bus.pktSize_system.cpu5.dcache.mem_side_port::system.l2.cpu_side_port            4                       # Cumulative packet size per connected requestor and responder (Byte)
system.tol2bus.pktSize_system.cpu5.itb_walker_cache.mem_side_port::system.l2.cpu_side_port          192                       # Cumulative packet size per connected requestor and responder (Byte)
system.tol2bus.pktSize_system.cpu5.dtb_walker_cache.mem_side_port::system.l2.cpu_side_port          704                       # Cumulative packet size per connected requestor and responder (Byte)
system.tol2bus.pktSize_system.cpu6.icache.mem_side_port::system.l2.cpu_side_port         1152                       # Cumulative packet size per connected requestor and responder (Byte)
system.tol2bus.pktSize_system.cpu6.dcache.mem_side_port::system.l2.cpu_side_port            4                       # Cumulative packet size per connected requestor and responder (Byte)
system.tol2bus.pktSize_system.cpu6.itb_walker_cache.mem_side_port::system.l2.cpu_side_port          192                       # Cumulative packet size per connected requestor and responder (Byte)
system.tol2bus.pktSize_system.cpu6.dtb_walker_cache.mem_side_port::system.l2.cpu_side_port          704                       # Cumulative packet size per connected requestor and responder (Byte)
system.tol2bus.pktSize_system.cpu7.icache.mem_side_port::system.l2.cpu_side_port         1024                       # Cumulative packet size per connected requestor and responder (Byte)
system.tol2bus.pktSize_system.cpu7.dcache.mem_side_port::system.l2.cpu_side_port            4                       # Cumulative packet size per connected requestor and responder (Byte)
system.tol2bus.pktSize_system.cpu7.itb_walker_cache.mem_side_port::system.l2.cpu_side_port          192                       # Cumulative packet size per connected requestor and responder (Byte)
system.tol2bus.pktSize_system.cpu7.dtb_walker_cache.mem_side_port::system.l2.cpu_side_port          704                       # Cumulative packet size per connected requestor and responder (Byte)
system.tol2bus.pktSize_system.cpu8.icache.mem_side_port::system.l2.cpu_side_port         1536                       # Cumulative packet size per connected requestor and responder (Byte)
system.tol2bus.pktSize_system.cpu8.dcache.mem_side_port::system.l2.cpu_side_port           68                       # Cumulative packet size per connected requestor and responder (Byte)
system.tol2bus.pktSize_system.cpu8.itb_walker_cache.mem_side_port::system.l2.cpu_side_port          192                       # Cumulative packet size per connected requestor and responder (Byte)
system.tol2bus.pktSize_system.cpu8.dtb_walker_cache.mem_side_port::system.l2.cpu_side_port         1024                       # Cumulative packet size per connected requestor and responder (Byte)
system.tol2bus.pktSize::total                  263556                       # Cumulative packet size per connected requestor and responder (Byte)
system.tol2bus.snoops                            4139                       # Total snoops (Count)
system.tol2bus.snoopTraffic                    207104                       # Total snoop traffic (Byte)
system.tol2bus.snoopFanout::samples              6467                       # Request fanout histogram (Count)
system.tol2bus.snoopFanout::mean             2.547394                       # Request fanout histogram (Count)
system.tol2bus.snoopFanout::stdev            2.797590                       # Request fanout histogram (Count)
system.tol2bus.snoopFanout::underflows              0      0.00%      0.00% # Request fanout histogram (Count)
system.tol2bus.snoopFanout::0                    1001     15.48%     15.48% # Request fanout histogram (Count)
system.tol2bus.snoopFanout::1                    2805     43.37%     58.85% # Request fanout histogram (Count)
system.tol2bus.snoopFanout::2                     689     10.65%     69.51% # Request fanout histogram (Count)
system.tol2bus.snoopFanout::3                     247      3.82%     73.33% # Request fanout histogram (Count)
system.tol2bus.snoopFanout::4                     303      4.69%     78.01% # Request fanout histogram (Count)
system.tol2bus.snoopFanout::5                     221      3.42%     81.43% # Request fanout histogram (Count)
system.tol2bus.snoopFanout::6                     264      4.08%     85.51% # Request fanout histogram (Count)
system.tol2bus.snoopFanout::7                     278      4.30%     89.81% # Request fanout histogram (Count)
system.tol2bus.snoopFanout::8                     559      8.64%     98.45% # Request fanout histogram (Count)
system.tol2bus.snoopFanout::9                      16      0.25%     98.70% # Request fanout histogram (Count)
system.tol2bus.snoopFanout::10                      7      0.11%     98.81% # Request fanout histogram (Count)
system.tol2bus.snoopFanout::11                      6      0.09%     98.90% # Request fanout histogram (Count)
system.tol2bus.snoopFanout::12                      4      0.06%     98.96% # Request fanout histogram (Count)
system.tol2bus.snoopFanout::13                     49      0.76%     99.72% # Request fanout histogram (Count)
system.tol2bus.snoopFanout::14                      4      0.06%     99.78% # Request fanout histogram (Count)
system.tol2bus.snoopFanout::15                     14      0.22%    100.00% # Request fanout histogram (Count)
system.tol2bus.snoopFanout::16                      0      0.00%    100.00% # Request fanout histogram (Count)
system.tol2bus.snoopFanout::17                      0      0.00%    100.00% # Request fanout histogram (Count)
system.tol2bus.snoopFanout::18                      0      0.00%    100.00% # Request fanout histogram (Count)
system.tol2bus.snoopFanout::19                      0      0.00%    100.00% # Request fanout histogram (Count)
system.tol2bus.snoopFanout::20                      0      0.00%    100.00% # Request fanout histogram (Count)
system.tol2bus.snoopFanout::21                      0      0.00%    100.00% # Request fanout histogram (Count)
system.tol2bus.snoopFanout::22                      0      0.00%    100.00% # Request fanout histogram (Count)
system.tol2bus.snoopFanout::23                      0      0.00%    100.00% # Request fanout histogram (Count)
system.tol2bus.snoopFanout::24                      0      0.00%    100.00% # Request fanout histogram (Count)
system.tol2bus.snoopFanout::25                      0      0.00%    100.00% # Request fanout histogram (Count)
system.tol2bus.snoopFanout::26                      0      0.00%    100.00% # Request fanout histogram (Count)
system.tol2bus.snoopFanout::27                      0      0.00%    100.00% # Request fanout histogram (Count)
system.tol2bus.snoopFanout::28                      0      0.00%    100.00% # Request fanout histogram (Count)
system.tol2bus.snoopFanout::29                      0      0.00%    100.00% # Request fanout histogram (Count)
system.tol2bus.snoopFanout::30                      0      0.00%    100.00% # Request fanout histogram (Count)
system.tol2bus.snoopFanout::31                      0      0.00%    100.00% # Request fanout histogram (Count)
system.tol2bus.snoopFanout::32                      0      0.00%    100.00% # Request fanout histogram (Count)
system.tol2bus.snoopFanout::33                      0      0.00%    100.00% # Request fanout histogram (Count)
system.tol2bus.snoopFanout::34                      0      0.00%    100.00% # Request fanout histogram (Count)
system.tol2bus.snoopFanout::35                      0      0.00%    100.00% # Request fanout histogram (Count)
system.tol2bus.snoopFanout::36                      0      0.00%    100.00% # Request fanout histogram (Count)
system.tol2bus.snoopFanout::overflows               0      0.00%    100.00% # Request fanout histogram (Count)
system.tol2bus.snoopFanout::min_value               0                       # Request fanout histogram (Count)
system.tol2bus.snoopFanout::max_value              15                       # Request fanout histogram (Count)
system.tol2bus.snoopFanout::total                6467                       # Request fanout histogram (Count)
system.tol2bus.power_state.pwrStateResidencyTicks::UNDEFINED   4504967500                       # Cumulative time (in ticks) in various power states (Tick)
system.tol2bus.reqLayer0.occupancy            6502000                       # Layer occupancy (ticks) (Tick)
system.tol2bus.reqLayer0.utilization              0.0                       # Layer utilization (Ratio)
system.tol2bus.respLayer0.occupancy            139500                       # Layer occupancy (ticks) (Tick)
system.tol2bus.respLayer0.utilization             0.0                       # Layer utilization (Ratio)
system.tol2bus.respLayer1.occupancy             69000                       # Layer occupancy (ticks) (Tick)
system.tol2bus.respLayer1.utilization             0.0                       # Layer utilization (Ratio)
system.tol2bus.respLayer10.occupancy           235500                       # Layer occupancy (ticks) (Tick)
system.tol2bus.respLayer10.utilization            0.0                       # Layer utilization (Ratio)
system.tol2bus.respLayer11.occupancy           240000                       # Layer occupancy (ticks) (Tick)
system.tol2bus.respLayer11.utilization            0.0                       # Layer utilization (Ratio)
system.tol2bus.respLayer12.occupancy           247500                       # Layer occupancy (ticks) (Tick)
system.tol2bus.respLayer12.utilization            0.0                       # Layer utilization (Ratio)
system.tol2bus.respLayer13.occupancy           610500                       # Layer occupancy (ticks) (Tick)
system.tol2bus.respLayer13.utilization            0.0                       # Layer utilization (Ratio)
system.tol2bus.respLayer14.occupancy           171000                       # Layer occupancy (ticks) (Tick)
system.tol2bus.respLayer14.utilization            0.0                       # Layer utilization (Ratio)
system.tol2bus.respLayer15.occupancy           147000                       # Layer occupancy (ticks) (Tick)
system.tol2bus.respLayer15.utilization            0.0                       # Layer utilization (Ratio)
system.tol2bus.respLayer16.occupancy           775500                       # Layer occupancy (ticks) (Tick)
system.tol2bus.respLayer16.utilization            0.0                       # Layer utilization (Ratio)
system.tol2bus.respLayer17.occupancy          1797155                       # Layer occupancy (ticks) (Tick)
system.tol2bus.respLayer17.utilization            0.0                       # Layer utilization (Ratio)
system.tol2bus.respLayer18.occupancy           291000                       # Layer occupancy (ticks) (Tick)
system.tol2bus.respLayer18.utilization            0.0                       # Layer utilization (Ratio)
system.tol2bus.respLayer19.occupancy           235500                       # Layer occupancy (ticks) (Tick)
system.tol2bus.respLayer19.utilization            0.0                       # Layer utilization (Ratio)
system.tol2bus.respLayer2.occupancy              6000                       # Layer occupancy (ticks) (Tick)
system.tol2bus.respLayer2.utilization             0.0                       # Layer utilization (Ratio)
system.tol2bus.respLayer20.occupancy            15000                       # Layer occupancy (ticks) (Tick)
system.tol2bus.respLayer20.utilization            0.0                       # Layer utilization (Ratio)
system.tol2bus.respLayer21.occupancy            77000                       # Layer occupancy (ticks) (Tick)
system.tol2bus.respLayer21.utilization            0.0                       # Layer utilization (Ratio)
system.tol2bus.respLayer22.occupancy             4500                       # Layer occupancy (ticks) (Tick)
system.tol2bus.respLayer22.utilization            0.0                       # Layer utilization (Ratio)
system.tol2bus.respLayer23.occupancy            16500                       # Layer occupancy (ticks) (Tick)
system.tol2bus.respLayer23.utilization            0.0                       # Layer utilization (Ratio)
system.tol2bus.respLayer24.occupancy            13500                       # Layer occupancy (ticks) (Tick)
system.tol2bus.respLayer24.utilization            0.0                       # Layer utilization (Ratio)
system.tol2bus.respLayer25.occupancy            72000                       # Layer occupancy (ticks) (Tick)
system.tol2bus.respLayer25.utilization            0.0                       # Layer utilization (Ratio)
system.tol2bus.respLayer26.occupancy             4500                       # Layer occupancy (ticks) (Tick)
system.tol2bus.respLayer26.utilization            0.0                       # Layer utilization (Ratio)
system.tol2bus.respLayer27.occupancy            16500                       # Layer occupancy (ticks) (Tick)
system.tol2bus.respLayer27.utilization            0.0                       # Layer utilization (Ratio)
system.tol2bus.respLayer28.occupancy            12000                       # Layer occupancy (ticks) (Tick)
system.tol2bus.respLayer28.utilization            0.0                       # Layer utilization (Ratio)
system.tol2bus.respLayer29.occupancy            72000                       # Layer occupancy (ticks) (Tick)
system.tol2bus.respLayer29.utilization            0.0                       # Layer utilization (Ratio)
system.tol2bus.respLayer3.occupancy             24000                       # Layer occupancy (ticks) (Tick)
system.tol2bus.respLayer3.utilization             0.0                       # Layer utilization (Ratio)
system.tol2bus.respLayer30.occupancy             4500                       # Layer occupancy (ticks) (Tick)
system.tol2bus.respLayer30.utilization            0.0                       # Layer utilization (Ratio)
system.tol2bus.respLayer31.occupancy            16500                       # Layer occupancy (ticks) (Tick)
system.tol2bus.respLayer31.utilization            0.0                       # Layer utilization (Ratio)
system.tol2bus.respLayer32.occupancy            18000                       # Layer occupancy (ticks) (Tick)
system.tol2bus.respLayer32.utilization            0.0                       # Layer utilization (Ratio)
system.tol2bus.respLayer33.occupancy            75000                       # Layer occupancy (ticks) (Tick)
system.tol2bus.respLayer33.utilization            0.0                       # Layer utilization (Ratio)
system.tol2bus.respLayer34.occupancy             4500                       # Layer occupancy (ticks) (Tick)
system.tol2bus.respLayer34.utilization            0.0                       # Layer utilization (Ratio)
system.tol2bus.respLayer35.occupancy            24000                       # Layer occupancy (ticks) (Tick)
system.tol2bus.respLayer35.utilization            0.0                       # Layer utilization (Ratio)
system.tol2bus.respLayer4.occupancy            102000                       # Layer occupancy (ticks) (Tick)
system.tol2bus.respLayer4.utilization             0.0                       # Layer utilization (Ratio)
system.tol2bus.respLayer5.occupancy             46000                       # Layer occupancy (ticks) (Tick)
system.tol2bus.respLayer5.utilization             0.0                       # Layer utilization (Ratio)
system.tol2bus.respLayer6.occupancy              4500                       # Layer occupancy (ticks) (Tick)
system.tol2bus.respLayer6.utilization             0.0                       # Layer utilization (Ratio)
system.tol2bus.respLayer7.occupancy             16500                       # Layer occupancy (ticks) (Tick)
system.tol2bus.respLayer7.utilization             0.0                       # Layer utilization (Ratio)
system.tol2bus.respLayer8.occupancy            849000                       # Layer occupancy (ticks) (Tick)
system.tol2bus.respLayer8.utilization             0.0                       # Layer utilization (Ratio)
system.tol2bus.respLayer9.occupancy           1357155                       # Layer occupancy (ticks) (Tick)
system.tol2bus.respLayer9.utilization             0.0                       # Layer utilization (Ratio)
system.tol2bus.snoop_filter.totRequests          8762                       # Total number of requests made to the snoop filter. (Count)
system.tol2bus.snoop_filter.hitSingleRequests         3045                       # Number of requests hitting in the snoop filter with a single holder of the requested data. (Count)
system.tol2bus.snoop_filter.hitMultiRequests         5065                       # Number of requests hitting in the snoop filter with multiple (>1) holders of the requested data. (Count)
system.tol2bus.snoop_filter.totSnoops             468                       # Total number of snoops made to the snoop filter. (Count)
system.tol2bus.snoop_filter.hitSingleSnoops          361                       # Number of snoops hitting in the snoop filter with a single holder of the requested data. (Count)
system.tol2bus.snoop_filter.hitMultiSnoops          107                       # Number of snoops hitting in the snoop filter with multiple (>1) holders of the requested data. (Count)
system.voltage_domain.voltage                       1                       # Voltage in Volts (Volt)
system.workload.inst.arm                            0                       # number of arm instructions executed (Count)
system.workload.inst.quiesce                        0                       # number of quiesce instructions executed (Count)

---------- End Simulation Statistics   ----------
