
---------- Begin Simulation Statistics ----------
simSeconds                                   4.830269                       # Number of seconds simulated (Second)
simTicks                                 4830268649500                       # Number of ticks simulated (Tick)
finalTick                                4830268649500                       # Number of ticks from beginning of simulation (restored from checkpoints and never reset) (Tick)
simFreq                                  1000000000000                       # The number of ticks per simulated second ((Tick/Second))
hostSeconds                                    117.85                       # Real time elapsed on the host (Second)
hostTickRate                              40986980929                       # The number of ticks simulated per host second (ticks/s) ((Tick/Second))
hostMemory                                    1710852                       # Number of bytes of host memory used (Byte)
simInsts                                    274906711                       # Number of instructions simulated (Count)
simOps                                      698535283                       # Number of ops (including micro ops) simulated (Count)
hostInstRate                                  2332705                       # Simulator instruction rate (inst/s) ((Count/Second))
hostOpRate                                    5927380                       # Simulator op (including micro ops) rate (op/s) ((Count/Second))
system.apicbridge.power_state.pwrStateResidencyTicks::UNDEFINED 4830268649500                       # Cumulative time (in ticks) in various power states (Tick)
system.bridge.power_state.pwrStateResidencyTicks::UNDEFINED 4830268649500                       # Cumulative time (in ticks) in various power states (Tick)
system.clk_domain.clock                           455                       # Clock period in ticks (Tick)
system.cpu0.numCycles                      9661839584                       # Number of cpu cycles simulated (Cycle)
system.cpu0.cpi                             43.215130                       # CPI: cycles per instruction (core level) ((Cycle/Count))
system.cpu0.ipc                              0.023140                       # IPC: instructions per cycle (core level) ((Count/Cycle))
system.cpu0.numWorkItemsStarted                     0                       # Number of work items this cpu started (Count)
system.cpu0.numWorkItemsCompleted                   0                       # Number of work items this cpu completed (Count)
system.cpu0.commitStats0.numInsts           223575393                       # Number of instructions committed (thread level) (Count)
system.cpu0.commitStats0.numOps             594520792                       # Number of ops (including micro ops) committed (thread level) (Count)
system.cpu0.commitStats0.numInstsNotNOP             0                       # Number of instructions committed excluding NOPs or prefetches (Count)
system.cpu0.commitStats0.numOpsNotNOP               0                       # Number of Ops (including micro ops) Simulated (Count)
system.cpu0.commitStats0.cpi                43.215130                       # CPI: cycles per instruction (thread level) ((Cycle/Count))
system.cpu0.commitStats0.ipc                 0.023140                       # IPC: instructions per cycle (thread level) ((Count/Cycle))
system.cpu0.commitStats0.numMemRefs                 0                       # Number of memory references committed (Count)
system.cpu0.commitStats0.numFpInsts              4944                       # Number of float instructions (Count)
system.cpu0.commitStats0.numIntInsts        526943294                       # Number of integer instructions (Count)
system.cpu0.commitStats0.numLoadInsts        66308344                       # Number of load instructions (Count)
system.cpu0.commitStats0.numStoreInsts       19822018                       # Number of store instructions (Count)
system.cpu0.commitStats0.numVecInsts                0                       # Number of vector instructions (Count)
system.cpu0.commitStats0.committedInstType::No_OpClass       609594      0.10%      0.10% # Class of committed instruction. (Count)
system.cpu0.commitStats0.committedInstType::IntAlu    507499997     85.36%     85.47% # Class of committed instruction. (Count)
system.cpu0.commitStats0.committedInstType::IntMult       258064      0.04%     85.51% # Class of committed instruction. (Count)
system.cpu0.commitStats0.committedInstType::IntDiv        22404      0.00%     85.51% # Class of committed instruction. (Count)
system.cpu0.commitStats0.committedInstType::FloatAdd           74      0.00%     85.51% # Class of committed instruction. (Count)
system.cpu0.commitStats0.committedInstType::FloatCmp            0      0.00%     85.51% # Class of committed instruction. (Count)
system.cpu0.commitStats0.committedInstType::FloatCvt           16      0.00%     85.51% # Class of committed instruction. (Count)
system.cpu0.commitStats0.committedInstType::FloatMult            0      0.00%     85.51% # Class of committed instruction. (Count)
system.cpu0.commitStats0.committedInstType::FloatMultAcc            0      0.00%     85.51% # Class of committed instruction. (Count)
system.cpu0.commitStats0.committedInstType::FloatDiv            0      0.00%     85.51% # Class of committed instruction. (Count)
system.cpu0.commitStats0.committedInstType::FloatMisc            0      0.00%     85.51% # Class of committed instruction. (Count)
system.cpu0.commitStats0.committedInstType::FloatSqrt            0      0.00%     85.51% # Class of committed instruction. (Count)
system.cpu0.commitStats0.committedInstType::SimdAdd          114      0.00%     85.51% # Class of committed instruction. (Count)
system.cpu0.commitStats0.committedInstType::SimdAddAcc            0      0.00%     85.51% # Class of committed instruction. (Count)
system.cpu0.commitStats0.committedInstType::SimdAlu          497      0.00%     85.51% # Class of committed instruction. (Count)
system.cpu0.commitStats0.committedInstType::SimdCmp            0      0.00%     85.51% # Class of committed instruction. (Count)
system.cpu0.commitStats0.committedInstType::SimdCvt         1152      0.00%     85.51% # Class of committed instruction. (Count)
system.cpu0.commitStats0.committedInstType::SimdMisc         1542      0.00%     85.51% # Class of committed instruction. (Count)
system.cpu0.commitStats0.committedInstType::SimdMult            0      0.00%     85.51% # Class of committed instruction. (Count)
system.cpu0.commitStats0.committedInstType::SimdMultAcc            0      0.00%     85.51% # Class of committed instruction. (Count)
system.cpu0.commitStats0.committedInstType::SimdMatMultAcc            0      0.00%     85.51% # Class of committed instruction. (Count)
system.cpu0.commitStats0.committedInstType::SimdShift           41      0.00%     85.51% # Class of committed instruction. (Count)
system.cpu0.commitStats0.committedInstType::SimdShiftAcc            0      0.00%     85.51% # Class of committed instruction. (Count)
system.cpu0.commitStats0.committedInstType::SimdDiv            0      0.00%     85.51% # Class of committed instruction. (Count)
system.cpu0.commitStats0.committedInstType::SimdSqrt            0      0.00%     85.51% # Class of committed instruction. (Count)
system.cpu0.commitStats0.committedInstType::SimdFloatAdd            0      0.00%     85.51% # Class of committed instruction. (Count)
system.cpu0.commitStats0.committedInstType::SimdFloatAlu            0      0.00%     85.51% # Class of committed instruction. (Count)
system.cpu0.commitStats0.committedInstType::SimdFloatCmp            0      0.00%     85.51% # Class of committed instruction. (Count)
system.cpu0.commitStats0.committedInstType::SimdFloatCvt            0      0.00%     85.51% # Class of committed instruction. (Count)
system.cpu0.commitStats0.committedInstType::SimdFloatDiv            0      0.00%     85.51% # Class of committed instruction. (Count)
system.cpu0.commitStats0.committedInstType::SimdFloatMisc            0      0.00%     85.51% # Class of committed instruction. (Count)
system.cpu0.commitStats0.committedInstType::SimdFloatMult            0      0.00%     85.51% # Class of committed instruction. (Count)
system.cpu0.commitStats0.committedInstType::SimdFloatMultAcc            0      0.00%     85.51% # Class of committed instruction. (Count)
system.cpu0.commitStats0.committedInstType::SimdFloatMatMultAcc            0      0.00%     85.51% # Class of committed instruction. (Count)
system.cpu0.commitStats0.committedInstType::SimdFloatSqrt            0      0.00%     85.51% # Class of committed instruction. (Count)
system.cpu0.commitStats0.committedInstType::SimdReduceAdd            0      0.00%     85.51% # Class of committed instruction. (Count)
system.cpu0.commitStats0.committedInstType::SimdReduceAlu            0      0.00%     85.51% # Class of committed instruction. (Count)
system.cpu0.commitStats0.committedInstType::SimdReduceCmp            0      0.00%     85.51% # Class of committed instruction. (Count)
system.cpu0.commitStats0.committedInstType::SimdFloatReduceAdd            0      0.00%     85.51% # Class of committed instruction. (Count)
system.cpu0.commitStats0.committedInstType::SimdFloatReduceCmp            0      0.00%     85.51% # Class of committed instruction. (Count)
system.cpu0.commitStats0.committedInstType::SimdAes            0      0.00%     85.51% # Class of committed instruction. (Count)
system.cpu0.commitStats0.committedInstType::SimdAesMix            0      0.00%     85.51% # Class of committed instruction. (Count)
system.cpu0.commitStats0.committedInstType::SimdSha1Hash            0      0.00%     85.51% # Class of committed instruction. (Count)
system.cpu0.commitStats0.committedInstType::SimdSha1Hash2            0      0.00%     85.51% # Class of committed instruction. (Count)
system.cpu0.commitStats0.committedInstType::SimdSha256Hash            0      0.00%     85.51% # Class of committed instruction. (Count)
system.cpu0.commitStats0.committedInstType::SimdSha256Hash2            0      0.00%     85.51% # Class of committed instruction. (Count)
system.cpu0.commitStats0.committedInstType::SimdShaSigma2            0      0.00%     85.51% # Class of committed instruction. (Count)
system.cpu0.commitStats0.committedInstType::SimdShaSigma3            0      0.00%     85.51% # Class of committed instruction. (Count)
system.cpu0.commitStats0.committedInstType::SimdPredAlu            0      0.00%     85.51% # Class of committed instruction. (Count)
system.cpu0.commitStats0.committedInstType::Matrix            0      0.00%     85.51% # Class of committed instruction. (Count)
system.cpu0.commitStats0.committedInstType::MatrixMov            0      0.00%     85.51% # Class of committed instruction. (Count)
system.cpu0.commitStats0.committedInstType::MatrixOP            0      0.00%     85.51% # Class of committed instruction. (Count)
system.cpu0.commitStats0.committedInstType::MemRead     66304375     11.15%     96.67% # Class of committed instruction. (Count)
system.cpu0.commitStats0.committedInstType::MemWrite     19821986      3.33%    100.00% # Class of committed instruction. (Count)
system.cpu0.commitStats0.committedInstType::FloatMemRead          904      0.00%    100.00% # Class of committed instruction. (Count)
system.cpu0.commitStats0.committedInstType::FloatMemWrite           32      0.00%    100.00% # Class of committed instruction. (Count)
system.cpu0.commitStats0.committedInstType::IprAccess            0      0.00%    100.00% # Class of committed instruction. (Count)
system.cpu0.commitStats0.committedInstType::InstPrefetch            0      0.00%    100.00% # Class of committed instruction. (Count)
system.cpu0.commitStats0.committedInstType::VectorUnitStrideLoad            0      0.00%    100.00% # Class of committed instruction. (Count)
system.cpu0.commitStats0.committedInstType::VectorUnitStrideStore            0      0.00%    100.00% # Class of committed instruction. (Count)
system.cpu0.commitStats0.committedInstType::VectorUnitStrideMaskLoad            0      0.00%    100.00% # Class of committed instruction. (Count)
system.cpu0.commitStats0.committedInstType::VectorUnitStrideMaskStore            0      0.00%    100.00% # Class of committed instruction. (Count)
system.cpu0.commitStats0.committedInstType::VectorStridedLoad            0      0.00%    100.00% # Class of committed instruction. (Count)
system.cpu0.commitStats0.committedInstType::VectorStridedStore            0      0.00%    100.00% # Class of committed instruction. (Count)
system.cpu0.commitStats0.committedInstType::VectorIndexedLoad            0      0.00%    100.00% # Class of committed instruction. (Count)
system.cpu0.commitStats0.committedInstType::VectorIndexedStore            0      0.00%    100.00% # Class of committed instruction. (Count)
system.cpu0.commitStats0.committedInstType::VectorUnitStrideFaultOnlyFirstLoad            0      0.00%    100.00% # Class of committed instruction. (Count)
system.cpu0.commitStats0.committedInstType::VectorWholeRegisterLoad            0      0.00%    100.00% # Class of committed instruction. (Count)
system.cpu0.commitStats0.committedInstType::VectorWholeRegisterStore            0      0.00%    100.00% # Class of committed instruction. (Count)
system.cpu0.commitStats0.committedInstType::VectorIntegerArith            0      0.00%    100.00% # Class of committed instruction. (Count)
system.cpu0.commitStats0.committedInstType::VectorFloatArith            0      0.00%    100.00% # Class of committed instruction. (Count)
system.cpu0.commitStats0.committedInstType::VectorFloatConvert            0      0.00%    100.00% # Class of committed instruction. (Count)
system.cpu0.commitStats0.committedInstType::VectorIntegerReduce            0      0.00%    100.00% # Class of committed instruction. (Count)
system.cpu0.commitStats0.committedInstType::VectorFloatReduce            0      0.00%    100.00% # Class of committed instruction. (Count)
system.cpu0.commitStats0.committedInstType::VectorMisc            0      0.00%    100.00% # Class of committed instruction. (Count)
system.cpu0.commitStats0.committedInstType::VectorIntegerExtension            0      0.00%    100.00% # Class of committed instruction. (Count)
system.cpu0.commitStats0.committedInstType::VectorConfig            0      0.00%    100.00% # Class of committed instruction. (Count)
system.cpu0.commitStats0.committedInstType::total    594520792                       # Class of committed instruction. (Count)
system.cpu0.commitStats0.committedControl::IsControl     79458364                       # Class of control type instructions committed (Count)
system.cpu0.commitStats0.committedControl::IsDirectControl     78134996                       # Class of control type instructions committed (Count)
system.cpu0.commitStats0.committedControl::IsIndirectControl      1318805                       # Class of control type instructions committed (Count)
system.cpu0.commitStats0.committedControl::IsCondControl     75448677                       # Class of control type instructions committed (Count)
system.cpu0.commitStats0.committedControl::IsUncondControl      4008321                       # Class of control type instructions committed (Count)
system.cpu0.commitStats0.committedControl::IsCall      1225175                       # Class of control type instructions committed (Count)
system.cpu0.commitStats0.committedControl::IsReturn      1225082                       # Class of control type instructions committed (Count)
system.cpu0.dcache.demandHits::cpu0.data     79675758                       # number of demand (read+write) hits (Count)
system.cpu0.dcache.demandHits::total         79675758                       # number of demand (read+write) hits (Count)
system.cpu0.dcache.overallHits::cpu0.data     79697673                       # number of overall hits (Count)
system.cpu0.dcache.overallHits::total        79697673                       # number of overall hits (Count)
system.cpu0.dcache.demandMisses::cpu0.data      2325008                       # number of demand (read+write) misses (Count)
system.cpu0.dcache.demandMisses::total        2325008                       # number of demand (read+write) misses (Count)
system.cpu0.dcache.overallMisses::cpu0.data      2471899                       # number of overall misses (Count)
system.cpu0.dcache.overallMisses::total       2471899                       # number of overall misses (Count)
system.cpu0.dcache.demandAccesses::cpu0.data     82000766                       # number of demand (read+write) accesses (Count)
system.cpu0.dcache.demandAccesses::total     82000766                       # number of demand (read+write) accesses (Count)
system.cpu0.dcache.overallAccesses::cpu0.data     82169572                       # number of overall (read+write) accesses (Count)
system.cpu0.dcache.overallAccesses::total     82169572                       # number of overall (read+write) accesses (Count)
system.cpu0.dcache.demandMissRate::cpu0.data     0.028353                       # miss rate for demand accesses (Ratio)
system.cpu0.dcache.demandMissRate::total     0.028353                       # miss rate for demand accesses (Ratio)
system.cpu0.dcache.overallMissRate::cpu0.data     0.030083                       # miss rate for overall accesses (Ratio)
system.cpu0.dcache.overallMissRate::total     0.030083                       # miss rate for overall accesses (Ratio)
system.cpu0.dcache.blockedCycles::no_mshrs            0                       # number of cycles access was blocked (Cycle)
system.cpu0.dcache.blockedCycles::no_targets            0                       # number of cycles access was blocked (Cycle)
system.cpu0.dcache.blockedCauses::no_mshrs            0                       # number of times access was blocked (Count)
system.cpu0.dcache.blockedCauses::no_targets            0                       # number of times access was blocked (Count)
system.cpu0.dcache.avgBlocked::no_mshrs           nan                       # average number of cycles each access was blocked ((Cycle/Count))
system.cpu0.dcache.avgBlocked::no_targets          nan                       # average number of cycles each access was blocked ((Cycle/Count))
system.cpu0.dcache.writebacks::writebacks       889388                       # number of writebacks (Count)
system.cpu0.dcache.writebacks::total           889388                       # number of writebacks (Count)
system.cpu0.dcache.replacements               2459274                       # number of replacements (Count)
system.cpu0.dcache.LockedRMWReadReq.hits::cpu0.data       463000                       # number of LockedRMWReadReq hits (Count)
system.cpu0.dcache.LockedRMWReadReq.hits::total       463000                       # number of LockedRMWReadReq hits (Count)
system.cpu0.dcache.LockedRMWReadReq.misses::cpu0.data        52542                       # number of LockedRMWReadReq misses (Count)
system.cpu0.dcache.LockedRMWReadReq.misses::total        52542                       # number of LockedRMWReadReq misses (Count)
system.cpu0.dcache.LockedRMWReadReq.accesses::cpu0.data       515542                       # number of LockedRMWReadReq accesses(hits+misses) (Count)
system.cpu0.dcache.LockedRMWReadReq.accesses::total       515542                       # number of LockedRMWReadReq accesses(hits+misses) (Count)
system.cpu0.dcache.LockedRMWReadReq.missRate::cpu0.data     0.101916                       # miss rate for LockedRMWReadReq accesses (Ratio)
system.cpu0.dcache.LockedRMWReadReq.missRate::total     0.101916                       # miss rate for LockedRMWReadReq accesses (Ratio)
system.cpu0.dcache.LockedRMWWriteReq.hits::cpu0.data       515542                       # number of LockedRMWWriteReq hits (Count)
system.cpu0.dcache.LockedRMWWriteReq.hits::total       515542                       # number of LockedRMWWriteReq hits (Count)
system.cpu0.dcache.LockedRMWWriteReq.accesses::cpu0.data       515542                       # number of LockedRMWWriteReq accesses(hits+misses) (Count)
system.cpu0.dcache.LockedRMWWriteReq.accesses::total       515542                       # number of LockedRMWWriteReq accesses(hits+misses) (Count)
system.cpu0.dcache.ReadReq.hits::cpu0.data     60925333                       # number of ReadReq hits (Count)
system.cpu0.dcache.ReadReq.hits::total       60925333                       # number of ReadReq hits (Count)
system.cpu0.dcache.ReadReq.misses::cpu0.data      1785681                       # number of ReadReq misses (Count)
system.cpu0.dcache.ReadReq.misses::total      1785681                       # number of ReadReq misses (Count)
system.cpu0.dcache.ReadReq.accesses::cpu0.data     62711014                       # number of ReadReq accesses(hits+misses) (Count)
system.cpu0.dcache.ReadReq.accesses::total     62711014                       # number of ReadReq accesses(hits+misses) (Count)
system.cpu0.dcache.ReadReq.missRate::cpu0.data     0.028475                       # miss rate for ReadReq accesses (Ratio)
system.cpu0.dcache.ReadReq.missRate::total     0.028475                       # miss rate for ReadReq accesses (Ratio)
system.cpu0.dcache.SoftPFReq.hits::cpu0.data        21915                       # number of SoftPFReq hits (Count)
system.cpu0.dcache.SoftPFReq.hits::total        21915                       # number of SoftPFReq hits (Count)
system.cpu0.dcache.SoftPFReq.misses::cpu0.data       146891                       # number of SoftPFReq misses (Count)
system.cpu0.dcache.SoftPFReq.misses::total       146891                       # number of SoftPFReq misses (Count)
system.cpu0.dcache.SoftPFReq.accesses::cpu0.data       168806                       # number of SoftPFReq accesses(hits+misses) (Count)
system.cpu0.dcache.SoftPFReq.accesses::total       168806                       # number of SoftPFReq accesses(hits+misses) (Count)
system.cpu0.dcache.SoftPFReq.missRate::cpu0.data     0.870176                       # miss rate for SoftPFReq accesses (Ratio)
system.cpu0.dcache.SoftPFReq.missRate::total     0.870176                       # miss rate for SoftPFReq accesses (Ratio)
system.cpu0.dcache.WriteReq.hits::cpu0.data     18750425                       # number of WriteReq hits (Count)
system.cpu0.dcache.WriteReq.hits::total      18750425                       # number of WriteReq hits (Count)
system.cpu0.dcache.WriteReq.misses::cpu0.data       539327                       # number of WriteReq misses (Count)
system.cpu0.dcache.WriteReq.misses::total       539327                       # number of WriteReq misses (Count)
system.cpu0.dcache.WriteReq.accesses::cpu0.data     19289752                       # number of WriteReq accesses(hits+misses) (Count)
system.cpu0.dcache.WriteReq.accesses::total     19289752                       # number of WriteReq accesses(hits+misses) (Count)
system.cpu0.dcache.WriteReq.missRate::cpu0.data     0.027959                       # miss rate for WriteReq accesses (Ratio)
system.cpu0.dcache.WriteReq.missRate::total     0.027959                       # miss rate for WriteReq accesses (Ratio)
system.cpu0.dcache.power_state.pwrStateResidencyTicks::UNDEFINED 4830268649500                       # Cumulative time (in ticks) in various power states (Tick)
system.cpu0.dcache.tags.tagsInUse           59.251257                       # Average ticks per tags in use ((Tick/Count))
system.cpu0.dcache.tags.totalRefs            83177134                       # Total number of references to valid blocks. (Count)
system.cpu0.dcache.tags.sampledRefs           2497603                       # Sample count of references to valid blocks. (Count)
system.cpu0.dcache.tags.avgRefs             33.302784                       # Average number of references to valid blocks. ((Count/Count))
system.cpu0.dcache.tags.warmupTick              12000                       # The tick when the warmup percentage was hit. (Tick)
system.cpu0.dcache.tags.occupancies::cpu0.data    59.251257                       # Average occupied blocks per tick, per requestor ((Count/Tick))
system.cpu0.dcache.tags.avgOccs::cpu0.data     0.925801                       # Average percentage of cache occupancy ((Ratio/Tick))
system.cpu0.dcache.tags.avgOccs::total       0.925801                       # Average percentage of cache occupancy ((Ratio/Tick))
system.cpu0.dcache.tags.occupanciesTaskId::1024           53                       # Occupied blocks per task id (Count)
system.cpu0.dcache.tags.ageTaskId_1024::0            4                       # Occupied blocks per task id, per block age (Count)
system.cpu0.dcache.tags.ageTaskId_1024::1            2                       # Occupied blocks per task id, per block age (Count)
system.cpu0.dcache.tags.ageTaskId_1024::2           47                       # Occupied blocks per task id, per block age (Count)
system.cpu0.dcache.tags.ratioOccsTaskId::1024     0.828125                       # Ratio of occupied blocks and all blocks, per task id (Ratio)
system.cpu0.dcache.tags.tagAccesses         335300280                       # Number of tag accesses (Count)
system.cpu0.dcache.tags.dataAccesses        335300280                       # Number of data accesses (Count)
system.cpu0.dcache.tags.power_state.pwrStateResidencyTicks::UNDEFINED 4830268649500                       # Cumulative time (in ticks) in various power states (Tick)
system.cpu0.dtb_walker_cache.demandHits::cpu0.mmu.dtb.walker          552                       # number of demand (read+write) hits (Count)
system.cpu0.dtb_walker_cache.demandHits::total          552                       # number of demand (read+write) hits (Count)
system.cpu0.dtb_walker_cache.overallHits::cpu0.mmu.dtb.walker          552                       # number of overall hits (Count)
system.cpu0.dtb_walker_cache.overallHits::total          552                       # number of overall hits (Count)
system.cpu0.dtb_walker_cache.demandMisses::cpu0.mmu.dtb.walker          619                       # number of demand (read+write) misses (Count)
system.cpu0.dtb_walker_cache.demandMisses::total          619                       # number of demand (read+write) misses (Count)
system.cpu0.dtb_walker_cache.overallMisses::cpu0.mmu.dtb.walker          619                       # number of overall misses (Count)
system.cpu0.dtb_walker_cache.overallMisses::total          619                       # number of overall misses (Count)
system.cpu0.dtb_walker_cache.demandAccesses::cpu0.mmu.dtb.walker         1171                       # number of demand (read+write) accesses (Count)
system.cpu0.dtb_walker_cache.demandAccesses::total         1171                       # number of demand (read+write) accesses (Count)
system.cpu0.dtb_walker_cache.overallAccesses::cpu0.mmu.dtb.walker         1171                       # number of overall (read+write) accesses (Count)
system.cpu0.dtb_walker_cache.overallAccesses::total         1171                       # number of overall (read+write) accesses (Count)
system.cpu0.dtb_walker_cache.demandMissRate::cpu0.mmu.dtb.walker     0.528608                       # miss rate for demand accesses (Ratio)
system.cpu0.dtb_walker_cache.demandMissRate::total     0.528608                       # miss rate for demand accesses (Ratio)
system.cpu0.dtb_walker_cache.overallMissRate::cpu0.mmu.dtb.walker     0.528608                       # miss rate for overall accesses (Ratio)
system.cpu0.dtb_walker_cache.overallMissRate::total     0.528608                       # miss rate for overall accesses (Ratio)
system.cpu0.dtb_walker_cache.blockedCycles::no_mshrs            0                       # number of cycles access was blocked (Cycle)
system.cpu0.dtb_walker_cache.blockedCycles::no_targets            0                       # number of cycles access was blocked (Cycle)
system.cpu0.dtb_walker_cache.blockedCauses::no_mshrs            0                       # number of times access was blocked (Count)
system.cpu0.dtb_walker_cache.blockedCauses::no_targets            0                       # number of times access was blocked (Count)
system.cpu0.dtb_walker_cache.avgBlocked::no_mshrs          nan                       # average number of cycles each access was blocked ((Cycle/Count))
system.cpu0.dtb_walker_cache.avgBlocked::no_targets          nan                       # average number of cycles each access was blocked ((Cycle/Count))
system.cpu0.dtb_walker_cache.writebacks::writebacks           19                       # number of writebacks (Count)
system.cpu0.dtb_walker_cache.writebacks::total           19                       # number of writebacks (Count)
system.cpu0.dtb_walker_cache.replacements          490                       # number of replacements (Count)
system.cpu0.dtb_walker_cache.ReadReq.hits::cpu0.mmu.dtb.walker          552                       # number of ReadReq hits (Count)
system.cpu0.dtb_walker_cache.ReadReq.hits::total          552                       # number of ReadReq hits (Count)
system.cpu0.dtb_walker_cache.ReadReq.misses::cpu0.mmu.dtb.walker          619                       # number of ReadReq misses (Count)
system.cpu0.dtb_walker_cache.ReadReq.misses::total          619                       # number of ReadReq misses (Count)
system.cpu0.dtb_walker_cache.ReadReq.accesses::cpu0.mmu.dtb.walker         1171                       # number of ReadReq accesses(hits+misses) (Count)
system.cpu0.dtb_walker_cache.ReadReq.accesses::total         1171                       # number of ReadReq accesses(hits+misses) (Count)
system.cpu0.dtb_walker_cache.ReadReq.missRate::cpu0.mmu.dtb.walker     0.528608                       # miss rate for ReadReq accesses (Ratio)
system.cpu0.dtb_walker_cache.ReadReq.missRate::total     0.528608                       # miss rate for ReadReq accesses (Ratio)
system.cpu0.dtb_walker_cache.power_state.pwrStateResidencyTicks::UNDEFINED 4830268649500                       # Cumulative time (in ticks) in various power states (Tick)
system.cpu0.dtb_walker_cache.tags.tagsInUse     7.820852                       # Average ticks per tags in use ((Tick/Count))
system.cpu0.dtb_walker_cache.tags.totalRefs         1078                       # Total number of references to valid blocks. (Count)
system.cpu0.dtb_walker_cache.tags.sampledRefs          607                       # Sample count of references to valid blocks. (Count)
system.cpu0.dtb_walker_cache.tags.avgRefs     1.775947                       # Average number of references to valid blocks. ((Count/Count))
system.cpu0.dtb_walker_cache.tags.warmupTick        12000                       # The tick when the warmup percentage was hit. (Tick)
system.cpu0.dtb_walker_cache.tags.occupancies::cpu0.mmu.dtb.walker     7.820852                       # Average occupied blocks per tick, per requestor ((Count/Tick))
system.cpu0.dtb_walker_cache.tags.avgOccs::cpu0.mmu.dtb.walker     0.488803                       # Average percentage of cache occupancy ((Ratio/Tick))
system.cpu0.dtb_walker_cache.tags.avgOccs::total     0.488803                       # Average percentage of cache occupancy ((Ratio/Tick))
system.cpu0.dtb_walker_cache.tags.occupanciesTaskId::1024           12                       # Occupied blocks per task id (Count)
system.cpu0.dtb_walker_cache.tags.ageTaskId_1024::2           10                       # Occupied blocks per task id, per block age (Count)
system.cpu0.dtb_walker_cache.tags.ageTaskId_1024::3            1                       # Occupied blocks per task id, per block age (Count)
system.cpu0.dtb_walker_cache.tags.ageTaskId_1024::4            1                       # Occupied blocks per task id, per block age (Count)
system.cpu0.dtb_walker_cache.tags.ratioOccsTaskId::1024     0.750000                       # Ratio of occupied blocks and all blocks, per task id (Ratio)
system.cpu0.dtb_walker_cache.tags.tagAccesses         2961                       # Number of tag accesses (Count)
system.cpu0.dtb_walker_cache.tags.dataAccesses         2961                       # Number of data accesses (Count)
system.cpu0.dtb_walker_cache.tags.power_state.pwrStateResidencyTicks::UNDEFINED 4830268649500                       # Cumulative time (in ticks) in various power states (Tick)
system.cpu0.exec_context.thread_0.numMatAluAccesses            0                       # Number of matrix alu accesses (Count)
system.cpu0.exec_context.thread_0.numCallsReturns      2450257                       # Number of times a function call or return occured (Count)
system.cpu0.exec_context.thread_0.numMatInsts            0                       # Number of matrix instructions (Count)
system.cpu0.exec_context.thread_0.numIdleCycles 8996209536.244984                       # Number of idle cycles (Cycle)
system.cpu0.exec_context.thread_0.numBusyCycles 665630047.755017                       # Number of busy cycles (Cycle)
system.cpu0.exec_context.thread_0.notIdleFraction     0.068893                       # Percentage of non-idle cycles (Ratio)
system.cpu0.exec_context.thread_0.idleFraction     0.931107                       # Percentage of idle cycles (Ratio)
system.cpu0.executeStats0.numInsts                  0                       # Number of executed instructions (Count)
system.cpu0.executeStats0.numNop                    0                       # Number of nop insts executed (Count)
system.cpu0.executeStats0.numBranches               0                       # Number of branches executed (Count)
system.cpu0.executeStats0.numLoadInsts              0                       # Number of load instructions executed (Count)
system.cpu0.executeStats0.numStoreInsts      86130362                       # Number of stores executed (Count)
system.cpu0.executeStats0.instRate                  0                       # Inst execution rate ((Count/Cycle))
system.cpu0.executeStats0.numFpAluAccesses         4944                       # Number of float alu accesses (Count)
system.cpu0.executeStats0.numFpRegReads          8184                       # Number of times the floating registers were read (Count)
system.cpu0.executeStats0.numFpRegWrites         3850                       # Number of times the floating registers were written (Count)
system.cpu0.executeStats0.numIntAluAccesses    526943294                       # Number of integer alu accesses (Count)
system.cpu0.executeStats0.numIntRegReads    487952858                       # Number of times the integer registers were read (Count)
system.cpu0.executeStats0.numIntRegWrites    375662669                       # Number of times the integer registers were written (Count)
system.cpu0.executeStats0.numMemRefs         86130362                       # Number of memory refs (Count)
system.cpu0.executeStats0.numMiscRegReads    268618989                       # Number of times the Misc registers were read (Count)
system.cpu0.executeStats0.numMiscRegWrites       177514                       # Number of times the Misc registers were written (Count)
system.cpu0.executeStats0.numVecAluAccesses            0                       # Number of vector alu accesses (Count)
system.cpu0.executeStats0.numDiscardedOps            0                       # Number of ops (including micro ops) which were discarded before commit (Count)
system.cpu0.fetchStats0.numInsts            223575393                       # Number of instructions fetched (thread level) (Count)
system.cpu0.fetchStats0.numOps              594520792                       # Number of ops (including micro ops) fetched (thread level) (Count)
system.cpu0.fetchStats0.fetchRate            0.023140                       # Number of inst fetches per cycle ((Count/Cycle))
system.cpu0.fetchStats0.numBranches          79458364                       # Number of branches fetched (Count)
system.cpu0.fetchStats0.branchRate           0.008224                       # Number of branch fetches per cycle (Ratio)
system.cpu0.fetchStats0.numFetchSuspends            0                       # Number of times Execute suspended instruction fetching (Count)
system.cpu0.icache.demandHits::cpu0.inst    295826709                       # number of demand (read+write) hits (Count)
system.cpu0.icache.demandHits::total        295826709                       # number of demand (read+write) hits (Count)
system.cpu0.icache.overallHits::cpu0.inst    295826709                       # number of overall hits (Count)
system.cpu0.icache.overallHits::total       295826709                       # number of overall hits (Count)
system.cpu0.icache.demandMisses::cpu0.inst        80644                       # number of demand (read+write) misses (Count)
system.cpu0.icache.demandMisses::total          80644                       # number of demand (read+write) misses (Count)
system.cpu0.icache.overallMisses::cpu0.inst        80644                       # number of overall misses (Count)
system.cpu0.icache.overallMisses::total         80644                       # number of overall misses (Count)
system.cpu0.icache.demandAccesses::cpu0.inst    295907353                       # number of demand (read+write) accesses (Count)
system.cpu0.icache.demandAccesses::total    295907353                       # number of demand (read+write) accesses (Count)
system.cpu0.icache.overallAccesses::cpu0.inst    295907353                       # number of overall (read+write) accesses (Count)
system.cpu0.icache.overallAccesses::total    295907353                       # number of overall (read+write) accesses (Count)
system.cpu0.icache.demandMissRate::cpu0.inst     0.000273                       # miss rate for demand accesses (Ratio)
system.cpu0.icache.demandMissRate::total     0.000273                       # miss rate for demand accesses (Ratio)
system.cpu0.icache.overallMissRate::cpu0.inst     0.000273                       # miss rate for overall accesses (Ratio)
system.cpu0.icache.overallMissRate::total     0.000273                       # miss rate for overall accesses (Ratio)
system.cpu0.icache.blockedCycles::no_mshrs            0                       # number of cycles access was blocked (Cycle)
system.cpu0.icache.blockedCycles::no_targets            0                       # number of cycles access was blocked (Cycle)
system.cpu0.icache.blockedCauses::no_mshrs            0                       # number of times access was blocked (Count)
system.cpu0.icache.blockedCauses::no_targets            0                       # number of times access was blocked (Count)
system.cpu0.icache.avgBlocked::no_mshrs           nan                       # average number of cycles each access was blocked ((Cycle/Count))
system.cpu0.icache.avgBlocked::no_targets          nan                       # average number of cycles each access was blocked ((Cycle/Count))
system.cpu0.icache.writebacks::writebacks        76755                       # number of writebacks (Count)
system.cpu0.icache.writebacks::total            76755                       # number of writebacks (Count)
system.cpu0.icache.replacements                 76755                       # number of replacements (Count)
system.cpu0.icache.ReadReq.hits::cpu0.inst    295826709                       # number of ReadReq hits (Count)
system.cpu0.icache.ReadReq.hits::total      295826709                       # number of ReadReq hits (Count)
system.cpu0.icache.ReadReq.misses::cpu0.inst        80644                       # number of ReadReq misses (Count)
system.cpu0.icache.ReadReq.misses::total        80644                       # number of ReadReq misses (Count)
system.cpu0.icache.ReadReq.accesses::cpu0.inst    295907353                       # number of ReadReq accesses(hits+misses) (Count)
system.cpu0.icache.ReadReq.accesses::total    295907353                       # number of ReadReq accesses(hits+misses) (Count)
system.cpu0.icache.ReadReq.missRate::cpu0.inst     0.000273                       # miss rate for ReadReq accesses (Ratio)
system.cpu0.icache.ReadReq.missRate::total     0.000273                       # miss rate for ReadReq accesses (Ratio)
system.cpu0.icache.power_state.pwrStateResidencyTicks::UNDEFINED 4830268649500                       # Cumulative time (in ticks) in various power states (Tick)
system.cpu0.icache.tags.tagsInUse         2969.478269                       # Average ticks per tags in use ((Tick/Count))
system.cpu0.icache.tags.totalRefs           290291933                       # Total number of references to valid blocks. (Count)
system.cpu0.icache.tags.sampledRefs             77119                       # Sample count of references to valid blocks. (Count)
system.cpu0.icache.tags.avgRefs           3764.207692                       # Average number of references to valid blocks. ((Count/Count))
system.cpu0.icache.tags.warmupTick                  0                       # The tick when the warmup percentage was hit. (Tick)
system.cpu0.icache.tags.occupancies::cpu0.inst  2969.478269                       # Average occupied blocks per tick, per requestor ((Count/Tick))
system.cpu0.icache.tags.avgOccs::cpu0.inst     0.724970                       # Average percentage of cache occupancy ((Ratio/Tick))
system.cpu0.icache.tags.avgOccs::total       0.724970                       # Average percentage of cache occupancy ((Ratio/Tick))
system.cpu0.icache.tags.occupanciesTaskId::1024         3525                       # Occupied blocks per task id (Count)
system.cpu0.icache.tags.ageTaskId_1024::2         1150                       # Occupied blocks per task id, per block age (Count)
system.cpu0.icache.tags.ageTaskId_1024::3         1027                       # Occupied blocks per task id, per block age (Count)
system.cpu0.icache.tags.ageTaskId_1024::4         1348                       # Occupied blocks per task id, per block age (Count)
system.cpu0.icache.tags.ratioOccsTaskId::1024     0.860596                       # Ratio of occupied blocks and all blocks, per task id (Ratio)
system.cpu0.icache.tags.tagAccesses         295987997                       # Number of tag accesses (Count)
system.cpu0.icache.tags.dataAccesses        295987997                       # Number of data accesses (Count)
system.cpu0.icache.tags.power_state.pwrStateResidencyTicks::UNDEFINED 4830268649500                       # Cumulative time (in ticks) in various power states (Tick)
system.cpu0.interrupts.clk_domain.clock          8000                       # Clock period in ticks (Tick)
system.cpu0.itb_walker_cache.demandHits::cpu0.mmu.itb.walker          469                       # number of demand (read+write) hits (Count)
system.cpu0.itb_walker_cache.demandHits::total          469                       # number of demand (read+write) hits (Count)
system.cpu0.itb_walker_cache.overallHits::cpu0.mmu.itb.walker          469                       # number of overall hits (Count)
system.cpu0.itb_walker_cache.overallHits::total          469                       # number of overall hits (Count)
system.cpu0.itb_walker_cache.demandMisses::cpu0.mmu.itb.walker          804                       # number of demand (read+write) misses (Count)
system.cpu0.itb_walker_cache.demandMisses::total          804                       # number of demand (read+write) misses (Count)
system.cpu0.itb_walker_cache.overallMisses::cpu0.mmu.itb.walker          804                       # number of overall misses (Count)
system.cpu0.itb_walker_cache.overallMisses::total          804                       # number of overall misses (Count)
system.cpu0.itb_walker_cache.demandAccesses::cpu0.mmu.itb.walker         1273                       # number of demand (read+write) accesses (Count)
system.cpu0.itb_walker_cache.demandAccesses::total         1273                       # number of demand (read+write) accesses (Count)
system.cpu0.itb_walker_cache.overallAccesses::cpu0.mmu.itb.walker         1273                       # number of overall (read+write) accesses (Count)
system.cpu0.itb_walker_cache.overallAccesses::total         1273                       # number of overall (read+write) accesses (Count)
system.cpu0.itb_walker_cache.demandMissRate::cpu0.mmu.itb.walker     0.631579                       # miss rate for demand accesses (Ratio)
system.cpu0.itb_walker_cache.demandMissRate::total     0.631579                       # miss rate for demand accesses (Ratio)
system.cpu0.itb_walker_cache.overallMissRate::cpu0.mmu.itb.walker     0.631579                       # miss rate for overall accesses (Ratio)
system.cpu0.itb_walker_cache.overallMissRate::total     0.631579                       # miss rate for overall accesses (Ratio)
system.cpu0.itb_walker_cache.blockedCycles::no_mshrs            0                       # number of cycles access was blocked (Cycle)
system.cpu0.itb_walker_cache.blockedCycles::no_targets            0                       # number of cycles access was blocked (Cycle)
system.cpu0.itb_walker_cache.blockedCauses::no_mshrs            0                       # number of times access was blocked (Count)
system.cpu0.itb_walker_cache.blockedCauses::no_targets            0                       # number of times access was blocked (Count)
system.cpu0.itb_walker_cache.avgBlocked::no_mshrs          nan                       # average number of cycles each access was blocked ((Cycle/Count))
system.cpu0.itb_walker_cache.avgBlocked::no_targets          nan                       # average number of cycles each access was blocked ((Cycle/Count))
system.cpu0.itb_walker_cache.writebacks::writebacks           12                       # number of writebacks (Count)
system.cpu0.itb_walker_cache.writebacks::total           12                       # number of writebacks (Count)
system.cpu0.itb_walker_cache.replacements          639                       # number of replacements (Count)
system.cpu0.itb_walker_cache.ReadReq.hits::cpu0.mmu.itb.walker          467                       # number of ReadReq hits (Count)
system.cpu0.itb_walker_cache.ReadReq.hits::total          467                       # number of ReadReq hits (Count)
system.cpu0.itb_walker_cache.ReadReq.misses::cpu0.mmu.itb.walker          804                       # number of ReadReq misses (Count)
system.cpu0.itb_walker_cache.ReadReq.misses::total          804                       # number of ReadReq misses (Count)
system.cpu0.itb_walker_cache.ReadReq.accesses::cpu0.mmu.itb.walker         1271                       # number of ReadReq accesses(hits+misses) (Count)
system.cpu0.itb_walker_cache.ReadReq.accesses::total         1271                       # number of ReadReq accesses(hits+misses) (Count)
system.cpu0.itb_walker_cache.ReadReq.missRate::cpu0.mmu.itb.walker     0.632573                       # miss rate for ReadReq accesses (Ratio)
system.cpu0.itb_walker_cache.ReadReq.missRate::total     0.632573                       # miss rate for ReadReq accesses (Ratio)
system.cpu0.itb_walker_cache.WriteReq.hits::cpu0.mmu.itb.walker            2                       # number of WriteReq hits (Count)
system.cpu0.itb_walker_cache.WriteReq.hits::total            2                       # number of WriteReq hits (Count)
system.cpu0.itb_walker_cache.WriteReq.accesses::cpu0.mmu.itb.walker            2                       # number of WriteReq accesses(hits+misses) (Count)
system.cpu0.itb_walker_cache.WriteReq.accesses::total            2                       # number of WriteReq accesses(hits+misses) (Count)
system.cpu0.itb_walker_cache.power_state.pwrStateResidencyTicks::UNDEFINED 4830268649500                       # Cumulative time (in ticks) in various power states (Tick)
system.cpu0.itb_walker_cache.tags.tagsInUse     4.005298                       # Average ticks per tags in use ((Tick/Count))
system.cpu0.itb_walker_cache.tags.totalRefs         1141                       # Total number of references to valid blocks. (Count)
system.cpu0.itb_walker_cache.tags.sampledRefs          790                       # Sample count of references to valid blocks. (Count)
system.cpu0.itb_walker_cache.tags.avgRefs     1.444304                       # Average number of references to valid blocks. ((Count/Count))
system.cpu0.itb_walker_cache.tags.warmupTick            0                       # The tick when the warmup percentage was hit. (Tick)
system.cpu0.itb_walker_cache.tags.occupancies::cpu0.mmu.itb.walker     4.005298                       # Average occupied blocks per tick, per requestor ((Count/Tick))
system.cpu0.itb_walker_cache.tags.avgOccs::cpu0.mmu.itb.walker     0.250331                       # Average percentage of cache occupancy ((Ratio/Tick))
system.cpu0.itb_walker_cache.tags.avgOccs::total     0.250331                       # Average percentage of cache occupancy ((Ratio/Tick))
system.cpu0.itb_walker_cache.tags.occupanciesTaskId::1024           14                       # Occupied blocks per task id (Count)
system.cpu0.itb_walker_cache.tags.ageTaskId_1024::2           13                       # Occupied blocks per task id, per block age (Count)
system.cpu0.itb_walker_cache.tags.ageTaskId_1024::3            1                       # Occupied blocks per task id, per block age (Count)
system.cpu0.itb_walker_cache.tags.ratioOccsTaskId::1024     0.875000                       # Ratio of occupied blocks and all blocks, per task id (Ratio)
system.cpu0.itb_walker_cache.tags.tagAccesses         3350                       # Number of tag accesses (Count)
system.cpu0.itb_walker_cache.tags.dataAccesses         3350                       # Number of data accesses (Count)
system.cpu0.itb_walker_cache.tags.power_state.pwrStateResidencyTicks::UNDEFINED 4830268649500                       # Cumulative time (in ticks) in various power states (Tick)
system.cpu0.mmu.dtb.rdAccesses               63398973                       # TLB accesses on read requests (Count)
system.cpu0.mmu.dtb.wrAccesses               19807621                       # TLB accesses on write requests (Count)
system.cpu0.mmu.dtb.rdMisses                      324                       # TLB misses on read requests (Count)
system.cpu0.mmu.dtb.wrMisses                       85                       # TLB misses on write requests (Count)
system.cpu0.mmu.dtb.walker.power_state.pwrStateResidencyTicks::UNDEFINED 4830268649500                       # Cumulative time (in ticks) in various power states (Tick)
system.cpu0.mmu.itb.rdAccesses                      0                       # TLB accesses on read requests (Count)
system.cpu0.mmu.itb.wrAccesses              295907468                       # TLB accesses on write requests (Count)
system.cpu0.mmu.itb.rdMisses                        0                       # TLB misses on read requests (Count)
system.cpu0.mmu.itb.wrMisses                      327                       # TLB misses on write requests (Count)
system.cpu0.mmu.itb.walker.power_state.pwrStateResidencyTicks::UNDEFINED 4830268649500                       # Cumulative time (in ticks) in various power states (Tick)
system.cpu0.power_state.numTransitions          17085                       # Number of power state transitions (Count)
system.cpu0.power_state.ticksClkGated::samples         8535                       # Distribution of time spent in the clock gated state (Tick)
system.cpu0.power_state.ticksClkGated::mean 526947684.191681                       # Distribution of time spent in the clock gated state (Tick)
system.cpu0.power_state.ticksClkGated::stdev 1326142290.807785                       # Distribution of time spent in the clock gated state (Tick)
system.cpu0.power_state.ticksClkGated::1000-5e+10         8535    100.00%    100.00% # Distribution of time spent in the clock gated state (Tick)
system.cpu0.power_state.ticksClkGated::min_value        98000                       # Distribution of time spent in the clock gated state (Tick)
system.cpu0.power_state.ticksClkGated::max_value   3995555000                       # Distribution of time spent in the clock gated state (Tick)
system.cpu0.power_state.ticksClkGated::total         8535                       # Distribution of time spent in the clock gated state (Tick)
system.cpu0.power_state.pwrStateResidencyTicks::ON 332770164924                       # Cumulative time (in ticks) in various power states (Tick)
system.cpu0.power_state.pwrStateResidencyTicks::CLK_GATED 4497498484576                       # Cumulative time (in ticks) in various power states (Tick)
system.cpu0.thread_0.numInsts                       0                       # Number of Instructions committed (Count)
system.cpu0.thread_0.numOps                         0                       # Number of Ops committed (Count)
system.cpu0.thread_0.numMemRefs                     0                       # Number of Memory References (Count)
system.cpu1.numCycles                      9660703615                       # Number of cpu cycles simulated (Cycle)
system.cpu1.cpi                            685.647325                       # CPI: cycles per instruction (core level) ((Cycle/Count))
system.cpu1.ipc                              0.001458                       # IPC: instructions per cycle (core level) ((Count/Cycle))
system.cpu1.numWorkItemsStarted                     0                       # Number of work items this cpu started (Count)
system.cpu1.numWorkItemsCompleted                   0                       # Number of work items this cpu completed (Count)
system.cpu1.commitStats0.numInsts            14089902                       # Number of instructions committed (thread level) (Count)
system.cpu1.commitStats0.numOps              29811321                       # Number of ops (including micro ops) committed (thread level) (Count)
system.cpu1.commitStats0.numInstsNotNOP             0                       # Number of instructions committed excluding NOPs or prefetches (Count)
system.cpu1.commitStats0.numOpsNotNOP               0                       # Number of Ops (including micro ops) Simulated (Count)
system.cpu1.commitStats0.cpi               685.647325                       # CPI: cycles per instruction (thread level) ((Cycle/Count))
system.cpu1.commitStats0.ipc                 0.001458                       # IPC: instructions per cycle (thread level) ((Count/Cycle))
system.cpu1.commitStats0.numMemRefs                 0                       # Number of memory references committed (Count)
system.cpu1.commitStats0.numFpInsts              5357                       # Number of float instructions (Count)
system.cpu1.commitStats0.numIntInsts         28862644                       # Number of integer instructions (Count)
system.cpu1.commitStats0.numLoadInsts         4418282                       # Number of load instructions (Count)
system.cpu1.commitStats0.numStoreInsts        2787758                       # Number of store instructions (Count)
system.cpu1.commitStats0.numVecInsts                0                       # Number of vector instructions (Count)
system.cpu1.commitStats0.committedInstType::No_OpClass        55564      0.19%      0.19% # Class of committed instruction. (Count)
system.cpu1.commitStats0.committedInstType::IntAlu     22478569     75.40%     75.59% # Class of committed instruction. (Count)
system.cpu1.commitStats0.committedInstType::IntMult        56648      0.19%     75.78% # Class of committed instruction. (Count)
system.cpu1.commitStats0.committedInstType::IntDiv        14624      0.05%     75.83% # Class of committed instruction. (Count)
system.cpu1.commitStats0.committedInstType::FloatAdd           39      0.00%     75.83% # Class of committed instruction. (Count)
system.cpu1.commitStats0.committedInstType::FloatCmp            0      0.00%     75.83% # Class of committed instruction. (Count)
system.cpu1.commitStats0.committedInstType::FloatCvt           16      0.00%     75.83% # Class of committed instruction. (Count)
system.cpu1.commitStats0.committedInstType::FloatMult            0      0.00%     75.83% # Class of committed instruction. (Count)
system.cpu1.commitStats0.committedInstType::FloatMultAcc            0      0.00%     75.83% # Class of committed instruction. (Count)
system.cpu1.commitStats0.committedInstType::FloatDiv            0      0.00%     75.83% # Class of committed instruction. (Count)
system.cpu1.commitStats0.committedInstType::FloatMisc            0      0.00%     75.83% # Class of committed instruction. (Count)
system.cpu1.commitStats0.committedInstType::FloatSqrt            0      0.00%     75.83% # Class of committed instruction. (Count)
system.cpu1.commitStats0.committedInstType::SimdAdd          166      0.00%     75.83% # Class of committed instruction. (Count)
system.cpu1.commitStats0.committedInstType::SimdAddAcc            0      0.00%     75.83% # Class of committed instruction. (Count)
system.cpu1.commitStats0.committedInstType::SimdAlu          747      0.00%     75.83% # Class of committed instruction. (Count)
system.cpu1.commitStats0.committedInstType::SimdCmp            0      0.00%     75.83% # Class of committed instruction. (Count)
system.cpu1.commitStats0.committedInstType::SimdCvt         1186      0.00%     75.84% # Class of committed instruction. (Count)
system.cpu1.commitStats0.committedInstType::SimdMisc         1265      0.00%     75.84% # Class of committed instruction. (Count)
system.cpu1.commitStats0.committedInstType::SimdMult            0      0.00%     75.84% # Class of committed instruction. (Count)
system.cpu1.commitStats0.committedInstType::SimdMultAcc            0      0.00%     75.84% # Class of committed instruction. (Count)
system.cpu1.commitStats0.committedInstType::SimdMatMultAcc            0      0.00%     75.84% # Class of committed instruction. (Count)
system.cpu1.commitStats0.committedInstType::SimdShift           79      0.00%     75.84% # Class of committed instruction. (Count)
system.cpu1.commitStats0.committedInstType::SimdShiftAcc            0      0.00%     75.84% # Class of committed instruction. (Count)
system.cpu1.commitStats0.committedInstType::SimdDiv            0      0.00%     75.84% # Class of committed instruction. (Count)
system.cpu1.commitStats0.committedInstType::SimdSqrt            0      0.00%     75.84% # Class of committed instruction. (Count)
system.cpu1.commitStats0.committedInstType::SimdFloatAdd            0      0.00%     75.84% # Class of committed instruction. (Count)
system.cpu1.commitStats0.committedInstType::SimdFloatAlu            0      0.00%     75.84% # Class of committed instruction. (Count)
system.cpu1.commitStats0.committedInstType::SimdFloatCmp            0      0.00%     75.84% # Class of committed instruction. (Count)
system.cpu1.commitStats0.committedInstType::SimdFloatCvt            0      0.00%     75.84% # Class of committed instruction. (Count)
system.cpu1.commitStats0.committedInstType::SimdFloatDiv            0      0.00%     75.84% # Class of committed instruction. (Count)
system.cpu1.commitStats0.committedInstType::SimdFloatMisc            0      0.00%     75.84% # Class of committed instruction. (Count)
system.cpu1.commitStats0.committedInstType::SimdFloatMult            0      0.00%     75.84% # Class of committed instruction. (Count)
system.cpu1.commitStats0.committedInstType::SimdFloatMultAcc            0      0.00%     75.84% # Class of committed instruction. (Count)
system.cpu1.commitStats0.committedInstType::SimdFloatMatMultAcc            0      0.00%     75.84% # Class of committed instruction. (Count)
system.cpu1.commitStats0.committedInstType::SimdFloatSqrt            0      0.00%     75.84% # Class of committed instruction. (Count)
system.cpu1.commitStats0.committedInstType::SimdReduceAdd            0      0.00%     75.84% # Class of committed instruction. (Count)
system.cpu1.commitStats0.committedInstType::SimdReduceAlu            0      0.00%     75.84% # Class of committed instruction. (Count)
system.cpu1.commitStats0.committedInstType::SimdReduceCmp            0      0.00%     75.84% # Class of committed instruction. (Count)
system.cpu1.commitStats0.committedInstType::SimdFloatReduceAdd            0      0.00%     75.84% # Class of committed instruction. (Count)
system.cpu1.commitStats0.committedInstType::SimdFloatReduceCmp            0      0.00%     75.84% # Class of committed instruction. (Count)
system.cpu1.commitStats0.committedInstType::SimdAes            0      0.00%     75.84% # Class of committed instruction. (Count)
system.cpu1.commitStats0.committedInstType::SimdAesMix            0      0.00%     75.84% # Class of committed instruction. (Count)
system.cpu1.commitStats0.committedInstType::SimdSha1Hash            0      0.00%     75.84% # Class of committed instruction. (Count)
system.cpu1.commitStats0.committedInstType::SimdSha1Hash2            0      0.00%     75.84% # Class of committed instruction. (Count)
system.cpu1.commitStats0.committedInstType::SimdSha256Hash            0      0.00%     75.84% # Class of committed instruction. (Count)
system.cpu1.commitStats0.committedInstType::SimdSha256Hash2            0      0.00%     75.84% # Class of committed instruction. (Count)
system.cpu1.commitStats0.committedInstType::SimdShaSigma2            0      0.00%     75.84% # Class of committed instruction. (Count)
system.cpu1.commitStats0.committedInstType::SimdShaSigma3            0      0.00%     75.84% # Class of committed instruction. (Count)
system.cpu1.commitStats0.committedInstType::SimdPredAlu            0      0.00%     75.84% # Class of committed instruction. (Count)
system.cpu1.commitStats0.committedInstType::Matrix            0      0.00%     75.84% # Class of committed instruction. (Count)
system.cpu1.commitStats0.committedInstType::MatrixMov            0      0.00%     75.84% # Class of committed instruction. (Count)
system.cpu1.commitStats0.committedInstType::MatrixOP            0      0.00%     75.84% # Class of committed instruction. (Count)
system.cpu1.commitStats0.committedInstType::MemRead      4413546     14.80%     90.64% # Class of committed instruction. (Count)
system.cpu1.commitStats0.committedInstType::MemWrite      2787614      9.35%    100.00% # Class of committed instruction. (Count)
system.cpu1.commitStats0.committedInstType::FloatMemRead         1114      0.00%    100.00% # Class of committed instruction. (Count)
system.cpu1.commitStats0.committedInstType::FloatMemWrite          144      0.00%    100.00% # Class of committed instruction. (Count)
system.cpu1.commitStats0.committedInstType::IprAccess            0      0.00%    100.00% # Class of committed instruction. (Count)
system.cpu1.commitStats0.committedInstType::InstPrefetch            0      0.00%    100.00% # Class of committed instruction. (Count)
system.cpu1.commitStats0.committedInstType::VectorUnitStrideLoad            0      0.00%    100.00% # Class of committed instruction. (Count)
system.cpu1.commitStats0.committedInstType::VectorUnitStrideStore            0      0.00%    100.00% # Class of committed instruction. (Count)
system.cpu1.commitStats0.committedInstType::VectorUnitStrideMaskLoad            0      0.00%    100.00% # Class of committed instruction. (Count)
system.cpu1.commitStats0.committedInstType::VectorUnitStrideMaskStore            0      0.00%    100.00% # Class of committed instruction. (Count)
system.cpu1.commitStats0.committedInstType::VectorStridedLoad            0      0.00%    100.00% # Class of committed instruction. (Count)
system.cpu1.commitStats0.committedInstType::VectorStridedStore            0      0.00%    100.00% # Class of committed instruction. (Count)
system.cpu1.commitStats0.committedInstType::VectorIndexedLoad            0      0.00%    100.00% # Class of committed instruction. (Count)
system.cpu1.commitStats0.committedInstType::VectorIndexedStore            0      0.00%    100.00% # Class of committed instruction. (Count)
system.cpu1.commitStats0.committedInstType::VectorUnitStrideFaultOnlyFirstLoad            0      0.00%    100.00% # Class of committed instruction. (Count)
system.cpu1.commitStats0.committedInstType::VectorWholeRegisterLoad            0      0.00%    100.00% # Class of committed instruction. (Count)
system.cpu1.commitStats0.committedInstType::VectorWholeRegisterStore            0      0.00%    100.00% # Class of committed instruction. (Count)
system.cpu1.commitStats0.committedInstType::VectorIntegerArith            0      0.00%    100.00% # Class of committed instruction. (Count)
system.cpu1.commitStats0.committedInstType::VectorFloatArith            0      0.00%    100.00% # Class of committed instruction. (Count)
system.cpu1.commitStats0.committedInstType::VectorFloatConvert            0      0.00%    100.00% # Class of committed instruction. (Count)
system.cpu1.commitStats0.committedInstType::VectorIntegerReduce            0      0.00%    100.00% # Class of committed instruction. (Count)
system.cpu1.commitStats0.committedInstType::VectorFloatReduce            0      0.00%    100.00% # Class of committed instruction. (Count)
system.cpu1.commitStats0.committedInstType::VectorMisc            0      0.00%    100.00% # Class of committed instruction. (Count)
system.cpu1.commitStats0.committedInstType::VectorIntegerExtension            0      0.00%    100.00% # Class of committed instruction. (Count)
system.cpu1.commitStats0.committedInstType::VectorConfig            0      0.00%    100.00% # Class of committed instruction. (Count)
system.cpu1.commitStats0.committedInstType::total     29811321                       # Class of committed instruction. (Count)
system.cpu1.commitStats0.committedControl::IsControl      3171410                       # Class of control type instructions committed (Count)
system.cpu1.commitStats0.committedControl::IsDirectControl      2798491                       # Class of control type instructions committed (Count)
system.cpu1.commitStats0.committedControl::IsIndirectControl       368329                       # Class of control type instructions committed (Count)
system.cpu1.commitStats0.committedControl::IsCondControl      2278235                       # Class of control type instructions committed (Count)
system.cpu1.commitStats0.committedControl::IsUncondControl       891831                       # Class of control type instructions committed (Count)
system.cpu1.commitStats0.committedControl::IsCall       328497                       # Class of control type instructions committed (Count)
system.cpu1.commitStats0.committedControl::IsReturn       328316                       # Class of control type instructions committed (Count)
system.cpu1.dcache.demandHits::cpu1.data      6388842                       # number of demand (read+write) hits (Count)
system.cpu1.dcache.demandHits::total          6388842                       # number of demand (read+write) hits (Count)
system.cpu1.dcache.overallHits::cpu1.data      6391024                       # number of overall hits (Count)
system.cpu1.dcache.overallHits::total         6391024                       # number of overall hits (Count)
system.cpu1.dcache.demandMisses::cpu1.data       654477                       # number of demand (read+write) misses (Count)
system.cpu1.dcache.demandMisses::total         654477                       # number of demand (read+write) misses (Count)
system.cpu1.dcache.overallMisses::cpu1.data       664644                       # number of overall misses (Count)
system.cpu1.dcache.overallMisses::total        664644                       # number of overall misses (Count)
system.cpu1.dcache.demandAccesses::cpu1.data      7043319                       # number of demand (read+write) accesses (Count)
system.cpu1.dcache.demandAccesses::total      7043319                       # number of demand (read+write) accesses (Count)
system.cpu1.dcache.overallAccesses::cpu1.data      7055668                       # number of overall (read+write) accesses (Count)
system.cpu1.dcache.overallAccesses::total      7055668                       # number of overall (read+write) accesses (Count)
system.cpu1.dcache.demandMissRate::cpu1.data     0.092922                       # miss rate for demand accesses (Ratio)
system.cpu1.dcache.demandMissRate::total     0.092922                       # miss rate for demand accesses (Ratio)
system.cpu1.dcache.overallMissRate::cpu1.data     0.094200                       # miss rate for overall accesses (Ratio)
system.cpu1.dcache.overallMissRate::total     0.094200                       # miss rate for overall accesses (Ratio)
system.cpu1.dcache.blockedCycles::no_mshrs            0                       # number of cycles access was blocked (Cycle)
system.cpu1.dcache.blockedCycles::no_targets            0                       # number of cycles access was blocked (Cycle)
system.cpu1.dcache.blockedCauses::no_mshrs            0                       # number of times access was blocked (Count)
system.cpu1.dcache.blockedCauses::no_targets            0                       # number of times access was blocked (Count)
system.cpu1.dcache.avgBlocked::no_mshrs           nan                       # average number of cycles each access was blocked ((Cycle/Count))
system.cpu1.dcache.avgBlocked::no_targets          nan                       # average number of cycles each access was blocked ((Cycle/Count))
system.cpu1.dcache.writebacks::writebacks       329299                       # number of writebacks (Count)
system.cpu1.dcache.writebacks::total           329299                       # number of writebacks (Count)
system.cpu1.dcache.replacements                608415                       # number of replacements (Count)
system.cpu1.dcache.LockedRMWReadReq.hits::cpu1.data        33757                       # number of LockedRMWReadReq hits (Count)
system.cpu1.dcache.LockedRMWReadReq.hits::total        33757                       # number of LockedRMWReadReq hits (Count)
system.cpu1.dcache.LockedRMWReadReq.misses::cpu1.data        45151                       # number of LockedRMWReadReq misses (Count)
system.cpu1.dcache.LockedRMWReadReq.misses::total        45151                       # number of LockedRMWReadReq misses (Count)
system.cpu1.dcache.LockedRMWReadReq.accesses::cpu1.data        78908                       # number of LockedRMWReadReq accesses(hits+misses) (Count)
system.cpu1.dcache.LockedRMWReadReq.accesses::total        78908                       # number of LockedRMWReadReq accesses(hits+misses) (Count)
system.cpu1.dcache.LockedRMWReadReq.missRate::cpu1.data     0.572198                       # miss rate for LockedRMWReadReq accesses (Ratio)
system.cpu1.dcache.LockedRMWReadReq.missRate::total     0.572198                       # miss rate for LockedRMWReadReq accesses (Ratio)
system.cpu1.dcache.LockedRMWWriteReq.hits::cpu1.data        78908                       # number of LockedRMWWriteReq hits (Count)
system.cpu1.dcache.LockedRMWWriteReq.hits::total        78908                       # number of LockedRMWWriteReq hits (Count)
system.cpu1.dcache.LockedRMWWriteReq.accesses::cpu1.data        78908                       # number of LockedRMWWriteReq accesses(hits+misses) (Count)
system.cpu1.dcache.LockedRMWWriteReq.accesses::total        78908                       # number of LockedRMWWriteReq accesses(hits+misses) (Count)
system.cpu1.dcache.ReadReq.hits::cpu1.data      3875773                       # number of ReadReq hits (Count)
system.cpu1.dcache.ReadReq.hits::total        3875773                       # number of ReadReq hits (Count)
system.cpu1.dcache.ReadReq.misses::cpu1.data       455486                       # number of ReadReq misses (Count)
system.cpu1.dcache.ReadReq.misses::total       455486                       # number of ReadReq misses (Count)
system.cpu1.dcache.ReadReq.accesses::cpu1.data      4331259                       # number of ReadReq accesses(hits+misses) (Count)
system.cpu1.dcache.ReadReq.accesses::total      4331259                       # number of ReadReq accesses(hits+misses) (Count)
system.cpu1.dcache.ReadReq.missRate::cpu1.data     0.105162                       # miss rate for ReadReq accesses (Ratio)
system.cpu1.dcache.ReadReq.missRate::total     0.105162                       # miss rate for ReadReq accesses (Ratio)
system.cpu1.dcache.SoftPFReq.hits::cpu1.data         2182                       # number of SoftPFReq hits (Count)
system.cpu1.dcache.SoftPFReq.hits::total         2182                       # number of SoftPFReq hits (Count)
system.cpu1.dcache.SoftPFReq.misses::cpu1.data        10167                       # number of SoftPFReq misses (Count)
system.cpu1.dcache.SoftPFReq.misses::total        10167                       # number of SoftPFReq misses (Count)
system.cpu1.dcache.SoftPFReq.accesses::cpu1.data        12349                       # number of SoftPFReq accesses(hits+misses) (Count)
system.cpu1.dcache.SoftPFReq.accesses::total        12349                       # number of SoftPFReq accesses(hits+misses) (Count)
system.cpu1.dcache.SoftPFReq.missRate::cpu1.data     0.823306                       # miss rate for SoftPFReq accesses (Ratio)
system.cpu1.dcache.SoftPFReq.missRate::total     0.823306                       # miss rate for SoftPFReq accesses (Ratio)
system.cpu1.dcache.WriteReq.hits::cpu1.data      2513069                       # number of WriteReq hits (Count)
system.cpu1.dcache.WriteReq.hits::total       2513069                       # number of WriteReq hits (Count)
system.cpu1.dcache.WriteReq.misses::cpu1.data       198991                       # number of WriteReq misses (Count)
system.cpu1.dcache.WriteReq.misses::total       198991                       # number of WriteReq misses (Count)
system.cpu1.dcache.WriteReq.accesses::cpu1.data      2712060                       # number of WriteReq accesses(hits+misses) (Count)
system.cpu1.dcache.WriteReq.accesses::total      2712060                       # number of WriteReq accesses(hits+misses) (Count)
system.cpu1.dcache.WriteReq.missRate::cpu1.data     0.073373                       # miss rate for WriteReq accesses (Ratio)
system.cpu1.dcache.WriteReq.missRate::total     0.073373                       # miss rate for WriteReq accesses (Ratio)
system.cpu1.dcache.power_state.pwrStateResidencyTicks::UNDEFINED 4830268649500                       # Cumulative time (in ticks) in various power states (Tick)
system.cpu1.dcache.tags.tagsInUse           50.832349                       # Average ticks per tags in use ((Tick/Count))
system.cpu1.dcache.tags.totalRefs             7191953                       # Total number of references to valid blocks. (Count)
system.cpu1.dcache.tags.sampledRefs            669745                       # Sample count of references to valid blocks. (Count)
system.cpu1.dcache.tags.avgRefs             10.738345                       # Average number of references to valid blocks. ((Count/Count))
system.cpu1.dcache.tags.warmupTick       328377575000                       # The tick when the warmup percentage was hit. (Tick)
system.cpu1.dcache.tags.occupancies::cpu1.data    50.832349                       # Average occupied blocks per tick, per requestor ((Count/Tick))
system.cpu1.dcache.tags.avgOccs::cpu1.data     0.794255                       # Average percentage of cache occupancy ((Ratio/Tick))
system.cpu1.dcache.tags.avgOccs::total       0.794255                       # Average percentage of cache occupancy ((Ratio/Tick))
system.cpu1.dcache.tags.occupanciesTaskId::1024           63                       # Occupied blocks per task id (Count)
system.cpu1.dcache.tags.ageTaskId_1024::0           15                       # Occupied blocks per task id, per block age (Count)
system.cpu1.dcache.tags.ageTaskId_1024::1            2                       # Occupied blocks per task id, per block age (Count)
system.cpu1.dcache.tags.ageTaskId_1024::2           46                       # Occupied blocks per task id, per block age (Count)
system.cpu1.dcache.tags.ratioOccsTaskId::1024     0.984375                       # Ratio of occupied blocks and all blocks, per task id (Ratio)
system.cpu1.dcache.tags.tagAccesses          29523744                       # Number of tag accesses (Count)
system.cpu1.dcache.tags.dataAccesses         29523744                       # Number of data accesses (Count)
system.cpu1.dcache.tags.power_state.pwrStateResidencyTicks::UNDEFINED 4830268649500                       # Cumulative time (in ticks) in various power states (Tick)
system.cpu1.dtb_walker_cache.demandHits::cpu1.mmu.dtb.walker          371                       # number of demand (read+write) hits (Count)
system.cpu1.dtb_walker_cache.demandHits::total          371                       # number of demand (read+write) hits (Count)
system.cpu1.dtb_walker_cache.overallHits::cpu1.mmu.dtb.walker          371                       # number of overall hits (Count)
system.cpu1.dtb_walker_cache.overallHits::total          371                       # number of overall hits (Count)
system.cpu1.dtb_walker_cache.demandMisses::cpu1.mmu.dtb.walker          702                       # number of demand (read+write) misses (Count)
system.cpu1.dtb_walker_cache.demandMisses::total          702                       # number of demand (read+write) misses (Count)
system.cpu1.dtb_walker_cache.overallMisses::cpu1.mmu.dtb.walker          702                       # number of overall misses (Count)
system.cpu1.dtb_walker_cache.overallMisses::total          702                       # number of overall misses (Count)
system.cpu1.dtb_walker_cache.demandAccesses::cpu1.mmu.dtb.walker         1073                       # number of demand (read+write) accesses (Count)
system.cpu1.dtb_walker_cache.demandAccesses::total         1073                       # number of demand (read+write) accesses (Count)
system.cpu1.dtb_walker_cache.overallAccesses::cpu1.mmu.dtb.walker         1073                       # number of overall (read+write) accesses (Count)
system.cpu1.dtb_walker_cache.overallAccesses::total         1073                       # number of overall (read+write) accesses (Count)
system.cpu1.dtb_walker_cache.demandMissRate::cpu1.mmu.dtb.walker     0.654240                       # miss rate for demand accesses (Ratio)
system.cpu1.dtb_walker_cache.demandMissRate::total     0.654240                       # miss rate for demand accesses (Ratio)
system.cpu1.dtb_walker_cache.overallMissRate::cpu1.mmu.dtb.walker     0.654240                       # miss rate for overall accesses (Ratio)
system.cpu1.dtb_walker_cache.overallMissRate::total     0.654240                       # miss rate for overall accesses (Ratio)
system.cpu1.dtb_walker_cache.blockedCycles::no_mshrs            0                       # number of cycles access was blocked (Cycle)
system.cpu1.dtb_walker_cache.blockedCycles::no_targets            0                       # number of cycles access was blocked (Cycle)
system.cpu1.dtb_walker_cache.blockedCauses::no_mshrs            0                       # number of times access was blocked (Count)
system.cpu1.dtb_walker_cache.blockedCauses::no_targets            0                       # number of times access was blocked (Count)
system.cpu1.dtb_walker_cache.avgBlocked::no_mshrs          nan                       # average number of cycles each access was blocked ((Cycle/Count))
system.cpu1.dtb_walker_cache.avgBlocked::no_targets          nan                       # average number of cycles each access was blocked ((Cycle/Count))
system.cpu1.dtb_walker_cache.writebacks::writebacks           11                       # number of writebacks (Count)
system.cpu1.dtb_walker_cache.writebacks::total           11                       # number of writebacks (Count)
system.cpu1.dtb_walker_cache.replacements          553                       # number of replacements (Count)
system.cpu1.dtb_walker_cache.ReadReq.hits::cpu1.mmu.dtb.walker          371                       # number of ReadReq hits (Count)
system.cpu1.dtb_walker_cache.ReadReq.hits::total          371                       # number of ReadReq hits (Count)
system.cpu1.dtb_walker_cache.ReadReq.misses::cpu1.mmu.dtb.walker          702                       # number of ReadReq misses (Count)
[...]
system.switch_cpus6.thread_0.numInsts               0                       # Number of Instructions committed (Count)
system.switch_cpus6.thread_0.numOps                 0                       # Number of Ops committed (Count)
system.switch_cpus6.thread_0.numMemRefs             0                       # Number of Memory References (Count)
system.tol2bus.transDist::ReadReq                   2                       # Transaction distribution (Count)
system.tol2bus.transDist::ReadResp               9123                       # Transaction distribution (Count)
system.tol2bus.transDist::WriteReq                 10                       # Transaction distribution (Count)
system.tol2bus.transDist::WriteResp                10                       # Transaction distribution (Count)
system.tol2bus.transDist::WritebackDirty        11182                       # Transaction distribution (Count)
system.tol2bus.transDist::WritebackClean         1471                       # Transaction distribution (Count)
system.tol2bus.transDist::CleanEvict             9490                       # Transaction distribution (Count)
system.tol2bus.transDist::UpgradeReq              167                       # Transaction distribution (Count)
system.tol2bus.transDist::UpgradeResp             167                       # Transaction distribution (Count)
system.tol2bus.transDist::ReadExReq              4426                       # Transaction distribution (Count)
system.tol2bus.transDist::ReadExResp             4426                       # Transaction distribution (Count)
system.tol2bus.transDist::ReadCleanReq           1576                       # Transaction distribution (Count)
system.tol2bus.transDist::ReadSharedReq          7546                       # Transaction distribution (Count)
system.tol2bus.pktCount_system.cpu0.icache.mem_side_port::system.l2.cpu_side_port           96                       # Packet count per connected requestor and responder (Count)
system.tol2bus.pktCount_system.cpu0.dcache.mem_side_port::system.l2.cpu_side_port          332                       # Packet count per connected requestor and responder (Count)
system.tol2bus.pktCount_system.cpu0.itb_walker_cache.mem_side_port::system.l2.cpu_side_port            9                       # Packet count per connected requestor and responder (Count)
system.tol2bus.pktCount_system.cpu0.dtb_walker_cache.mem_side_port::system.l2.cpu_side_port           23                       # Packet count per connected requestor and responder (Count)
system.tol2bus.pktCount_system.cpu1.icache.mem_side_port::system.l2.cpu_side_port         1987                       # Packet count per connected requestor and responder (Count)
system.tol2bus.pktCount_system.cpu1.dcache.mem_side_port::system.l2.cpu_side_port        12229                       # Packet count per connected requestor and responder (Count)
system.tol2bus.pktCount_system.cpu1.itb_walker_cache.mem_side_port::system.l2.cpu_side_port          445                       # Packet count per connected requestor and responder (Count)
system.tol2bus.pktCount_system.cpu1.dtb_walker_cache.mem_side_port::system.l2.cpu_side_port          471                       # Packet count per connected requestor and responder (Count)
system.tol2bus.pktCount_system.cpu2.icache.mem_side_port::system.l2.cpu_side_port          530                       # Packet count per connected requestor and responder (Count)
system.tol2bus.pktCount_system.cpu2.dcache.mem_side_port::system.l2.cpu_side_port         5972                       # Packet count per connected requestor and responder (Count)
system.tol2bus.pktCount_system.cpu2.itb_walker_cache.mem_side_port::system.l2.cpu_side_port          313                       # Packet count per connected requestor and responder (Count)
system.tol2bus.pktCount_system.cpu2.dtb_walker_cache.mem_side_port::system.l2.cpu_side_port          323                       # Packet count per connected requestor and responder (Count)
system.tol2bus.pktCount_system.cpu5.icache.mem_side_port::system.l2.cpu_side_port           99                       # Packet count per connected requestor and responder (Count)
system.tol2bus.pktCount_system.cpu5.dcache.mem_side_port::system.l2.cpu_side_port          222                       # Packet count per connected requestor and responder (Count)
system.tol2bus.pktCount_system.cpu5.itb_walker_cache.mem_side_port::system.l2.cpu_side_port            6                       # Packet count per connected requestor and responder (Count)
system.tol2bus.pktCount_system.cpu5.dtb_walker_cache.mem_side_port::system.l2.cpu_side_port           27                       # Packet count per connected requestor and responder (Count)
system.tol2bus.pktCount_system.cpu6.icache.mem_side_port::system.l2.cpu_side_port         1911                       # Packet count per connected requestor and responder (Count)
system.tol2bus.pktCount_system.cpu6.dcache.mem_side_port::system.l2.cpu_side_port        14335                       # Packet count per connected requestor and responder (Count)
system.tol2bus.pktCount_system.cpu6.itb_walker_cache.mem_side_port::system.l2.cpu_side_port          520                       # Packet count per connected requestor and responder (Count)
system.tol2bus.pktCount_system.cpu6.dtb_walker_cache.mem_side_port::system.l2.cpu_side_port          447                       # Packet count per connected requestor and responder (Count)
system.tol2bus.pktCount::total                  40297                       # Packet count per connected requestor and responder (Count)
system.tol2bus.pktSize_system.cpu0.icache.mem_side_port::system.l2.cpu_side_port         4096                       # Cumulative packet size per connected requestor and responder (Byte)
system.tol2bus.pktSize_system.cpu0.dcache.mem_side_port::system.l2.cpu_side_port         8836                       # Cumulative packet size per connected requestor and responder (Byte)
system.tol2bus.pktSize_system.cpu0.itb_walker_cache.mem_side_port::system.l2.cpu_side_port          192                       # Cumulative packet size per connected requestor and responder (Byte)
system.tol2bus.pktSize_system.cpu0.dtb_walker_cache.mem_side_port::system.l2.cpu_side_port          576                       # Cumulative packet size per connected requestor and responder (Byte)
system.tol2bus.pktSize_system.cpu1.icache.mem_side_port::system.l2.cpu_side_port        82624                       # Cumulative packet size per connected requestor and responder (Byte)
system.tol2bus.pktSize_system.cpu1.dcache.mem_side_port::system.l2.cpu_side_port       425040                       # Cumulative packet size per connected requestor and responder (Byte)
system.tol2bus.pktSize_system.cpu1.itb_walker_cache.mem_side_port::system.l2.cpu_side_port         9728                       # Cumulative packet size per connected requestor and responder (Byte)
system.tol2bus.pktSize_system.cpu1.dtb_walker_cache.mem_side_port::system.l2.cpu_side_port        10176                       # Cumulative packet size per connected requestor and responder (Byte)
system.tol2bus.pktSize_system.cpu2.icache.mem_side_port::system.l2.cpu_side_port        22528                       # Cumulative packet size per connected requestor and responder (Byte)
system.tol2bus.pktSize_system.cpu2.dcache.mem_side_port::system.l2.cpu_side_port       193288                       # Cumulative packet size per connected requestor and responder (Byte)
system.tol2bus.pktSize_system.cpu2.itb_walker_cache.mem_side_port::system.l2.cpu_side_port         6336                       # Cumulative packet size per connected requestor and responder (Byte)
system.tol2bus.pktSize_system.cpu2.dtb_walker_cache.mem_side_port::system.l2.cpu_side_port         6912                       # Cumulative packet size per connected requestor and responder (Byte)
system.tol2bus.pktSize_system.cpu5.icache.mem_side_port::system.l2.cpu_side_port         4224                       # Cumulative packet size per connected requestor and responder (Byte)
system.tol2bus.pktSize_system.cpu5.dcache.mem_side_port::system.l2.cpu_side_port         5188                       # Cumulative packet size per connected requestor and responder (Byte)
system.tol2bus.pktSize_system.cpu5.itb_walker_cache.mem_side_port::system.l2.cpu_side_port          192                       # Cumulative packet size per connected requestor and responder (Byte)
system.tol2bus.pktSize_system.cpu5.dtb_walker_cache.mem_side_port::system.l2.cpu_side_port          704                       # Cumulative packet size per connected requestor and responder (Byte)
system.tol2bus.pktSize_system.cpu6.icache.mem_side_port::system.l2.cpu_side_port        81536                       # Cumulative packet size per connected requestor and responder (Byte)
system.tol2bus.pktSize_system.cpu6.dcache.mem_side_port::system.l2.cpu_side_port       512400                       # Cumulative packet size per connected requestor and responder (Byte)
system.tol2bus.pktSize_system.cpu6.itb_walker_cache.mem_side_port::system.l2.cpu_side_port        10688                       # Cumulative packet size per connected requestor and responder (Byte)
system.tol2bus.pktSize_system.cpu6.dtb_walker_cache.mem_side_port::system.l2.cpu_side_port         9664                       # Cumulative packet size per connected requestor and responder (Byte)
system.tol2bus.pktSize::total                 1394928                       # Cumulative packet size per connected requestor and responder (Byte)
system.tol2bus.snoops                            9299                       # Total snoops (Count)
system.tol2bus.snoopTraffic                    281920                       # Total snoop traffic (Byte)
system.tol2bus.snoopFanout::samples             22658                       # Request fanout histogram (Count)
system.tol2bus.snoopFanout::mean             0.717980                       # Request fanout histogram (Count)
system.tol2bus.snoopFanout::stdev            1.516674                       # Request fanout histogram (Count)
system.tol2bus.snoopFanout::underflows              0      0.00%      0.00% # Request fanout histogram (Count)
system.tol2bus.snoopFanout::0                   16320     72.03%     72.03% # Request fanout histogram (Count)
system.tol2bus.snoopFanout::1                    2871     12.67%     84.70% # Request fanout histogram (Count)
system.tol2bus.snoopFanout::2                    1020      4.50%     89.20% # Request fanout histogram (Count)
system.tol2bus.snoopFanout::3                     655      2.89%     92.09% # Request fanout histogram (Count)
system.tol2bus.snoopFanout::4                     493      2.18%     94.27% # Request fanout histogram (Count)
system.tol2bus.snoopFanout::5                     581      2.56%     96.83% # Request fanout histogram (Count)
system.tol2bus.snoopFanout::6                     511      2.26%     99.09% # Request fanout histogram (Count)
system.tol2bus.snoopFanout::7                     207      0.91%    100.00% # Request fanout histogram (Count)
system.tol2bus.snoopFanout::8                       0      0.00%    100.00% # Request fanout histogram (Count)
system.tol2bus.snoopFanout::9                       0      0.00%    100.00% # Request fanout histogram (Count)
system.tol2bus.snoopFanout::10                      0      0.00%    100.00% # Request fanout histogram (Count)
system.tol2bus.snoopFanout::11                      0      0.00%    100.00% # Request fanout histogram (Count)
system.tol2bus.snoopFanout::12                      0      0.00%    100.00% # Request fanout histogram (Count)
system.tol2bus.snoopFanout::13                      0      0.00%    100.00% # Request fanout histogram (Count)
system.tol2bus.snoopFanout::14                      0      0.00%    100.00% # Request fanout histogram (Count)
system.tol2bus.snoopFanout::15                      0      0.00%    100.00% # Request fanout histogram (Count)
system.tol2bus.snoopFanout::16                      0      0.00%    100.00% # Request fanout histogram (Count)
system.tol2bus.snoopFanout::17                      0      0.00%    100.00% # Request fanout histogram (Count)
system.tol2bus.snoopFanout::18                      0      0.00%    100.00% # Request fanout histogram (Count)
system.tol2bus.snoopFanout::19                      0      0.00%    100.00% # Request fanout histogram (Count)
system.tol2bus.snoopFanout::20                      0      0.00%    100.00% # Request fanout histogram (Count)
system.tol2bus.snoopFanout::21                      0      0.00%    100.00% # Request fanout histogram (Count)
system.tol2bus.snoopFanout::22                      0      0.00%    100.00% # Request fanout histogram (Count)
system.tol2bus.snoopFanout::23                      0      0.00%    100.00% # Request fanout histogram (Count)
system.tol2bus.snoopFanout::24                      0      0.00%    100.00% # Request fanout histogram (Count)
system.tol2bus.snoopFanout::25                      0      0.00%    100.00% # Request fanout histogram (Count)
system.tol2bus.snoopFanout::26                      0      0.00%    100.00% # Request fanout histogram (Count)
system.tol2bus.snoopFanout::27                      0      0.00%    100.00% # Request fanout histogram (Count)
system.tol2bus.snoopFanout::28                      0      0.00%    100.00% # Request fanout histogram (Count)
system.tol2bus.snoopFanout::overflows               0      0.00%    100.00% # Request fanout histogram (Count)
system.tol2bus.snoopFanout::min_value               0                       # Request fanout histogram (Count)
system.tol2bus.snoopFanout::max_value               7                       # Request fanout histogram (Count)
system.tol2bus.snoopFanout::total               22658                       # Request fanout histogram (Count)
system.tol2bus.power_state.pwrStateResidencyTicks::UNDEFINED   2697892000                       # Cumulative time (in ticks) in various power states (Tick)
system.tol2bus.reqLayer0.occupancy           22040500                       # Layer occupancy (ticks) (Tick)
system.tol2bus.reqLayer0.utilization              0.0                       # Layer utilization (Ratio)
system.tol2bus.respLayer0.occupancy             48000                       # Layer occupancy (ticks) (Tick)
system.tol2bus.respLayer0.utilization             0.0                       # Layer utilization (Ratio)
system.tol2bus.respLayer1.occupancy            175500                       # Layer occupancy (ticks) (Tick)
system.tol2bus.respLayer1.utilization             0.0                       # Layer utilization (Ratio)
system.tol2bus.respLayer10.occupancy           172500                       # Layer occupancy (ticks) (Tick)
system.tol2bus.respLayer10.utilization            0.0                       # Layer utilization (Ratio)
system.tol2bus.respLayer11.occupancy           177000                       # Layer occupancy (ticks) (Tick)
system.tol2bus.respLayer11.utilization            0.0                       # Layer utilization (Ratio)
system.tol2bus.respLayer2.occupancy              4500                       # Layer occupancy (ticks) (Tick)
system.tol2bus.respLayer2.utilization             0.0                       # Layer utilization (Ratio)
system.tol2bus.respLayer20.occupancy            49500                       # Layer occupancy (ticks) (Tick)
system.tol2bus.respLayer20.utilization            0.0                       # Layer utilization (Ratio)
system.tol2bus.respLayer21.occupancy           123000                       # Layer occupancy (ticks) (Tick)
system.tol2bus.respLayer21.utilization            0.0                       # Layer utilization (Ratio)
system.tol2bus.respLayer22.occupancy             4500                       # Layer occupancy (ticks) (Tick)
system.tol2bus.respLayer22.utilization            0.0                       # Layer utilization (Ratio)
system.tol2bus.respLayer23.occupancy            16500                       # Layer occupancy (ticks) (Tick)
system.tol2bus.respLayer23.utilization            0.0                       # Layer utilization (Ratio)
system.tol2bus.respLayer24.occupancy           955500                       # Layer occupancy (ticks) (Tick)
system.tol2bus.respLayer24.utilization            0.0                       # Layer utilization (Ratio)
system.tol2bus.respLayer25.occupancy          7172045                       # Layer occupancy (ticks) (Tick)
system.tol2bus.respLayer25.utilization            0.0                       # Layer utilization (Ratio)
system.tol2bus.respLayer26.occupancy           291000                       # Layer occupancy (ticks) (Tick)
system.tol2bus.respLayer26.utilization            0.0                       # Layer utilization (Ratio)
system.tol2bus.respLayer27.occupancy           252000                       # Layer occupancy (ticks) (Tick)
system.tol2bus.respLayer27.utilization            0.0                       # Layer utilization (Ratio)
system.tol2bus.respLayer3.occupancy             13500                       # Layer occupancy (ticks) (Tick)
system.tol2bus.respLayer3.utilization             0.0                       # Layer utilization (Ratio)
system.tol2bus.respLayer4.occupancy           1044000                       # Layer occupancy (ticks) (Tick)
system.tol2bus.respLayer4.utilization             0.0                       # Layer utilization (Ratio)
system.tol2bus.respLayer5.occupancy           6145042                       # Layer occupancy (ticks) (Tick)
system.tol2bus.respLayer5.utilization             0.0                       # Layer utilization (Ratio)
system.tol2bus.respLayer6.occupancy            235999                       # Layer occupancy (ticks) (Tick)
system.tol2bus.respLayer6.utilization             0.0                       # Layer utilization (Ratio)
system.tol2bus.respLayer7.occupancy            249000                       # Layer occupancy (ticks) (Tick)
system.tol2bus.respLayer7.utilization             0.0                       # Layer utilization (Ratio)
system.tol2bus.respLayer8.occupancy            267000                       # Layer occupancy (ticks) (Tick)
system.tol2bus.respLayer8.utilization             0.0                       # Layer utilization (Ratio)
system.tol2bus.respLayer9.occupancy           3017998                       # Layer occupancy (ticks) (Tick)
system.tol2bus.respLayer9.utilization             0.0                       # Layer utilization (Ratio)
system.tol2bus.snoop_filter.totRequests         26927                       # Total number of requests made to the snoop filter. (Count)
system.tol2bus.snoop_filter.hitSingleRequests        11684                       # Number of requests hitting in the snoop filter with a single holder of the requested data. (Count)
system.tol2bus.snoop_filter.hitMultiRequests         4739                       # Number of requests hitting in the snoop filter with multiple (>1) holders of the requested data. (Count)
system.tol2bus.snoop_filter.totSnoops            3134                       # Total number of snoops made to the snoop filter. (Count)
system.tol2bus.snoop_filter.hitSingleSnoops         1588                       # Number of snoops hitting in the snoop filter with a single holder of the requested data. (Count)
system.tol2bus.snoop_filter.hitMultiSnoops         1546                       # Number of snoops hitting in the snoop filter with multiple (>1) holders of the requested data. (Count)
system.voltage_domain.voltage                       1                       # Voltage in Volts (Volt)
system.workload.inst.arm                            0                       # number of arm instructions executed (Count)
system.workload.inst.quiesce                        0                       # number of quiesce instructions executed (Count)

---------- End Simulation Statistics   ----------
