
---------- Begin Simulation Statistics ----------
simSeconds                                   4.794841                       # Number of seconds simulated (Second)
simTicks                                 4794840641000                       # Number of ticks simulated (Tick)
finalTick                                4794840641000                       # Number of ticks from beginning of simulation (restored from checkpoints and never reset) (Tick)
simFreq                                  1000000000000                       # The number of ticks per simulated second ((Tick/Second))
hostSeconds                                     93.90                       # Real time elapsed on the host (Second)
hostTickRate                              51062099066                       # The number of ticks simulated per host second (ticks/s) ((Tick/Second))
hostMemory                                    1369860                       # Number of bytes of host memory used (Byte)
simInsts                                    257127333                       # Number of instructions simulated (Count)
simOps                                      661416463                       # Number of ops (including micro ops) simulated (Count)
hostInstRate                                  2738246                       # Simulator instruction rate (inst/s) ((Count/Second))
hostOpRate                                    7043674                       # Simulator op (including micro ops) rate (op/s) ((Count/Second))
system.apicbridge.power_state.pwrStateResidencyTicks::UNDEFINED 4794840641000                       # Cumulative time (in ticks) in various power states (Tick)
system.bridge.power_state.pwrStateResidencyTicks::UNDEFINED 4794840641000                       # Cumulative time (in ticks) in various power states (Tick)
system.clk_domain.clock                           500                       # Clock period in ticks (Tick)
system.cpu0.numCycles                      9590885868                       # Number of cpu cycles simulated (Cycle)
system.cpu0.cpi                             42.842559                       # CPI: cycles per instruction (core level) ((Cycle/Count))
system.cpu0.ipc                              0.023341                       # IPC: instructions per cycle (core level) ((Count/Cycle))
system.cpu0.numWorkItemsStarted                     0                       # Number of work items this cpu started (Count)
system.cpu0.numWorkItemsCompleted                   0                       # Number of work items this cpu completed (Count)
system.cpu0.commitStats0.numInsts           223863515                       # Number of instructions committed (thread level) (Count)
system.cpu0.commitStats0.numOps             593574135                       # Number of ops (including micro ops) committed (thread level) (Count)
system.cpu0.commitStats0.numInstsNotNOP             0                       # Number of instructions committed excluding NOPs or prefetches (Count)
system.cpu0.commitStats0.numOpsNotNOP               0                       # Number of Ops (including micro ops) Simulated (Count)
system.cpu0.commitStats0.cpi                42.842559                       # CPI: cycles per instruction (thread level) ((Cycle/Count))
system.cpu0.commitStats0.ipc                 0.023341                       # IPC: instructions per cycle (thread level) ((Count/Cycle))
system.cpu0.commitStats0.numMemRefs                 0                       # Number of memory references committed (Count)
system.cpu0.commitStats0.numFpInsts              9317                       # Number of float instructions (Count)
system.cpu0.commitStats0.numIntInsts        526246444                       # Number of integer instructions (Count)
system.cpu0.commitStats0.numLoadInsts        66150627                       # Number of load instructions (Count)
system.cpu0.commitStats0.numStoreInsts       19702591                       # Number of store instructions (Count)
system.cpu0.commitStats0.numVecInsts                0                       # Number of vector instructions (Count)
system.cpu0.commitStats0.committedInstType::No_OpClass       605523      0.10%      0.10% # Class of committed instruction. (Count)
system.cpu0.commitStats0.committedInstType::IntAlu    506836892     85.39%     85.49% # Class of committed instruction. (Count)
system.cpu0.commitStats0.committedInstType::IntMult       254934      0.04%     85.53% # Class of committed instruction. (Count)
system.cpu0.commitStats0.committedInstType::IntDiv        19138      0.00%     85.54% # Class of committed instruction. (Count)
system.cpu0.commitStats0.committedInstType::FloatAdd          197      0.00%     85.54% # Class of committed instruction. (Count)
system.cpu0.commitStats0.committedInstType::FloatCmp            0      0.00%     85.54% # Class of committed instruction. (Count)
system.cpu0.commitStats0.committedInstType::FloatCvt           16      0.00%     85.54% # Class of committed instruction. (Count)
system.cpu0.commitStats0.committedInstType::FloatMult            0      0.00%     85.54% # Class of committed instruction. (Count)
system.cpu0.commitStats0.committedInstType::FloatMultAcc            0      0.00%     85.54% # Class of committed instruction. (Count)
system.cpu0.commitStats0.committedInstType::FloatDiv            0      0.00%     85.54% # Class of committed instruction. (Count)
system.cpu0.commitStats0.committedInstType::FloatMisc            0      0.00%     85.54% # Class of committed instruction. (Count)
system.cpu0.commitStats0.committedInstType::FloatSqrt            0      0.00%     85.54% # Class of committed instruction. (Count)
system.cpu0.commitStats0.committedInstType::SimdAdd          264      0.00%     85.54% # Class of committed instruction. (Count)
system.cpu0.commitStats0.committedInstType::SimdAddAcc            0      0.00%     85.54% # Class of committed instruction. (Count)
system.cpu0.commitStats0.committedInstType::SimdAlu          807      0.00%     85.54% # Class of committed instruction. (Count)
system.cpu0.commitStats0.committedInstType::SimdCmp            0      0.00%     85.54% # Class of committed instruction. (Count)
system.cpu0.commitStats0.committedInstType::SimdCvt         2156      0.00%     85.54% # Class of committed instruction. (Count)
system.cpu0.commitStats0.committedInstType::SimdMisc         3110      0.00%     85.54% # Class of committed instruction. (Count)
system.cpu0.commitStats0.committedInstType::SimdMult            0      0.00%     85.54% # Class of committed instruction. (Count)
system.cpu0.commitStats0.committedInstType::SimdMultAcc            0      0.00%     85.54% # Class of committed instruction. (Count)
system.cpu0.commitStats0.committedInstType::SimdMatMultAcc            0      0.00%     85.54% # Class of committed instruction. (Count)
system.cpu0.commitStats0.committedInstType::SimdShift          134      0.00%     85.54% # Class of committed instruction. (Count)
system.cpu0.commitStats0.committedInstType::SimdShiftAcc            0      0.00%     85.54% # Class of committed instruction. (Count)
system.cpu0.commitStats0.committedInstType::SimdDiv            0      0.00%     85.54% # Class of committed instruction. (Count)
system.cpu0.commitStats0.committedInstType::SimdSqrt            0      0.00%     85.54% # Class of committed instruction. (Count)
system.cpu0.commitStats0.committedInstType::SimdFloatAdd            0      0.00%     85.54% # Class of committed instruction. (Count)
system.cpu0.commitStats0.committedInstType::SimdFloatAlu            0      0.00%     85.54% # Class of committed instruction. (Count)
system.cpu0.commitStats0.committedInstType::SimdFloatCmp            0      0.00%     85.54% # Class of committed instruction. (Count)
system.cpu0.commitStats0.committedInstType::SimdFloatCvt            0      0.00%     85.54% # Class of committed instruction. (Count)
system.cpu0.commitStats0.committedInstType::SimdFloatDiv            0      0.00%     85.54% # Class of committed instruction. (Count)
system.cpu0.commitStats0.committedInstType::SimdFloatMisc            0      0.00%     85.54% # Class of committed instruction. (Count)
system.cpu0.commitStats0.committedInstType::SimdFloatMult            0      0.00%     85.54% # Class of committed instruction. (Count)
system.cpu0.commitStats0.committedInstType::SimdFloatMultAcc            0      0.00%     85.54% # Class of committed instruction. (Count)
system.cpu0.commitStats0.committedInstType::SimdFloatMatMultAcc            0      0.00%     85.54% # Class of committed instruction. (Count)
system.cpu0.commitStats0.committedInstType::SimdFloatSqrt            0      0.00%     85.54% # Class of committed instruction. (Count)
system.cpu0.commitStats0.committedInstType::SimdReduceAdd            0      0.00%     85.54% # Class of committed instruction. (Count)
system.cpu0.commitStats0.committedInstType::SimdReduceAlu            0      0.00%     85.54% # Class of committed instruction. (Count)
system.cpu0.commitStats0.committedInstType::SimdReduceCmp            0      0.00%     85.54% # Class of committed instruction. (Count)
system.cpu0.commitStats0.committedInstType::SimdFloatReduceAdd            0      0.00%     85.54% # Class of committed instruction. (Count)
system.cpu0.commitStats0.committedInstType::SimdFloatReduceCmp            0      0.00%     85.54% # Class of committed instruction. (Count)
system.cpu0.commitStats0.committedInstType::SimdAes            0      0.00%     85.54% # Class of committed instruction. (Count)
system.cpu0.commitStats0.committedInstType::SimdAesMix            0      0.00%     85.54% # Class of committed instruction. (Count)
system.cpu0.commitStats0.committedInstType::SimdSha1Hash            0      0.00%     85.54% # Class of committed instruction. (Count)
system.cpu0.commitStats0.committedInstType::SimdSha1Hash2            0      0.00%     85.54% # Class of committed instruction. (Count)
system.cpu0.commitStats0.committedInstType::SimdSha256Hash            0      0.00%     85.54% # Class of committed instruction. (Count)
system.cpu0.commitStats0.committedInstType::SimdSha256Hash2            0      0.00%     85.54% # Class of committed instruction. (Count)
system.cpu0.commitStats0.committedInstType::SimdShaSigma2            0      0.00%     85.54% # Class of committed instruction. (Count)
system.cpu0.commitStats0.committedInstType::SimdShaSigma3            0      0.00%     85.54% # Class of committed instruction. (Count)
system.cpu0.commitStats0.committedInstType::SimdPredAlu            0      0.00%     85.54% # Class of committed instruction. (Count)
system.cpu0.commitStats0.committedInstType::Matrix            0      0.00%     85.54% # Class of committed instruction. (Count)
system.cpu0.commitStats0.committedInstType::MatrixMov            0      0.00%     85.54% # Class of committed instruction. (Count)
system.cpu0.commitStats0.committedInstType::MatrixOP            0      0.00%     85.54% # Class of committed instruction. (Count)
system.cpu0.commitStats0.committedInstType::MemRead     66146783     11.14%     96.68% # Class of committed instruction. (Count)
system.cpu0.commitStats0.committedInstType::MemWrite     19702556      3.32%    100.00% # Class of committed instruction. (Count)
system.cpu0.commitStats0.committedInstType::FloatMemRead         1590      0.00%    100.00% # Class of committed instruction. (Count)
system.cpu0.commitStats0.committedInstType::FloatMemWrite           35      0.00%    100.00% # Class of committed instruction. (Count)
system.cpu0.commitStats0.committedInstType::IprAccess            0      0.00%    100.00% # Class of committed instruction. (Count)
system.cpu0.commitStats0.committedInstType::InstPrefetch            0      0.00%    100.00% # Class of committed instruction. (Count)
system.cpu0.commitStats0.committedInstType::VectorUnitStrideLoad            0      0.00%    100.00% # Class of committed instruction. (Count)
system.cpu0.commitStats0.committedInstType::VectorUnitStrideStore            0      0.00%    100.00% # Class of committed instruction. (Count)
system.cpu0.commitStats0.committedInstType::VectorUnitStrideMaskLoad            0      0.00%    100.00% # Class of committed instruction. (Count)
system.cpu0.commitStats0.committedInstType::VectorUnitStrideMaskStore            0      0.00%    100.00% # Class of committed instruction. (Count)
system.cpu0.commitStats0.committedInstType::VectorStridedLoad            0      0.00%    100.00% # Class of committed instruction. (Count)
system.cpu0.commitStats0.committedInstType::VectorStridedStore            0      0.00%    100.00% # Class of committed instruction. (Count)
system.cpu0.commitStats0.committedInstType::VectorIndexedLoad            0      0.00%    100.00% # Class of committed instruction. (Count)
system.cpu0.commitStats0.committedInstType::VectorIndexedStore            0      0.00%    100.00% # Class of committed instruction. (Count)
system.cpu0.commitStats0.committedInstType::VectorUnitStrideFaultOnlyFirstLoad            0      0.00%    100.00% # Class of committed instruction. (Count)
system.cpu0.commitStats0.committedInstType::VectorWholeRegisterLoad            0      0.00%    100.00% # Class of committed instruction. (Count)
system.cpu0.commitStats0.committedInstType::VectorWholeRegisterStore            0      0.00%    100.00% # Class of committed instruction. (Count)
system.cpu0.commitStats0.committedInstType::VectorIntegerArith            0      0.00%    100.00% # Class of committed instruction. (Count)
system.cpu0.commitStats0.committedInstType::VectorFloatArith            0      0.00%    100.00% # Class of committed instruction. (Count)
system.cpu0.commitStats0.committedInstType::VectorFloatConvert            0      0.00%    100.00% # Class of committed instruction. (Count)
system.cpu0.commitStats0.committedInstType::VectorIntegerReduce            0      0.00%    100.00% # Class of committed instruction. (Count)
system.cpu0.commitStats0.committedInstType::VectorFloatReduce            0      0.00%    100.00% # Class of committed instruction. (Count)
system.cpu0.commitStats0.committedInstType::VectorMisc            0      0.00%    100.00% # Class of committed instruction. (Count)
system.cpu0.commitStats0.committedInstType::VectorIntegerExtension            0      0.00%    100.00% # Class of committed instruction. (Count)
system.cpu0.commitStats0.committedInstType::VectorConfig            0      0.00%    100.00% # Class of committed instruction. (Count)
system.cpu0.commitStats0.committedInstType::total    593574135                       # Class of committed instruction. (Count)
system.cpu0.commitStats0.committedControl::IsControl     79248388                       # Class of control type instructions committed (Count)
system.cpu0.commitStats0.committedControl::IsDirectControl     77930593                       # Class of control type instructions committed (Count)
system.cpu0.commitStats0.committedControl::IsIndirectControl      1312823                       # Class of control type instructions committed (Count)
system.cpu0.commitStats0.committedControl::IsCondControl     75263618                       # Class of control type instructions committed (Count)
system.cpu0.commitStats0.committedControl::IsUncondControl      3983317                       # Class of control type instructions committed (Count)
system.cpu0.commitStats0.committedControl::IsCall      1218899                       # Class of control type instructions committed (Count)
system.cpu0.commitStats0.committedControl::IsReturn      1218830                       # Class of control type instructions committed (Count)
system.cpu0.dcache.demandHits::cpu0.data     81148671                       # number of demand (read+write) hits (Count)
system.cpu0.dcache.demandHits::total         81148671                       # number of demand (read+write) hits (Count)
system.cpu0.dcache.overallHits::cpu0.data     81193264                       # number of overall hits (Count)
system.cpu0.dcache.overallHits::total        81193264                       # number of overall hits (Count)
system.cpu0.dcache.demandMisses::cpu0.data       562168                       # number of demand (read+write) misses (Count)
system.cpu0.dcache.demandMisses::total         562168                       # number of demand (read+write) misses (Count)
system.cpu0.dcache.overallMisses::cpu0.data       689288                       # number of overall misses (Count)
system.cpu0.dcache.overallMisses::total        689288                       # number of overall misses (Count)
system.cpu0.dcache.demandAccesses::cpu0.data     81710839                       # number of demand (read+write) accesses (Count)
system.cpu0.dcache.demandAccesses::total     81710839                       # number of demand (read+write) accesses (Count)
system.cpu0.dcache.overallAccesses::cpu0.data     81882552                       # number of overall (read+write) accesses (Count)
system.cpu0.dcache.overallAccesses::total     81882552                       # number of overall (read+write) accesses (Count)
system.cpu0.dcache.demandMissRate::cpu0.data     0.006880                       # miss rate for demand accesses (Ratio)
system.cpu0.dcache.demandMissRate::total     0.006880                       # miss rate for demand accesses (Ratio)
system.cpu0.dcache.overallMissRate::cpu0.data     0.008418                       # miss rate for overall accesses (Ratio)
system.cpu0.dcache.overallMissRate::total     0.008418                       # miss rate for overall accesses (Ratio)
system.cpu0.dcache.blockedCycles::no_mshrs            0                       # number of cycles access was blocked (Cycle)
system.cpu0.dcache.blockedCycles::no_targets            0                       # number of cycles access was blocked (Cycle)
system.cpu0.dcache.blockedCauses::no_mshrs            0                       # number of times access was blocked (Count)
system.cpu0.dcache.blockedCauses::no_targets            0                       # number of times access was blocked (Count)
system.cpu0.dcache.avgBlocked::no_mshrs           nan                       # average number of cycles each access was blocked ((Cycle/Count))
system.cpu0.dcache.avgBlocked::no_targets          nan                       # average number of cycles each access was blocked ((Cycle/Count))
system.cpu0.dcache.writebacks::writebacks       564906                       # number of writebacks (Count)
system.cpu0.dcache.writebacks::total           564906                       # number of writebacks (Count)
system.cpu0.dcache.replacements                601577                       # number of replacements (Count)
system.cpu0.dcache.LockedRMWReadReq.hits::cpu0.data       501856                       # number of LockedRMWReadReq hits (Count)
system.cpu0.dcache.LockedRMWReadReq.hits::total       501856                       # number of LockedRMWReadReq hits (Count)
system.cpu0.dcache.LockedRMWReadReq.misses::cpu0.data        17461                       # number of LockedRMWReadReq misses (Count)
system.cpu0.dcache.LockedRMWReadReq.misses::total        17461                       # number of LockedRMWReadReq misses (Count)
system.cpu0.dcache.LockedRMWReadReq.accesses::cpu0.data       519317                       # number of LockedRMWReadReq accesses(hits+misses) (Count)
system.cpu0.dcache.LockedRMWReadReq.accesses::total       519317                       # number of LockedRMWReadReq accesses(hits+misses) (Count)
system.cpu0.dcache.LockedRMWReadReq.missRate::cpu0.data     0.033623                       # miss rate for LockedRMWReadReq accesses (Ratio)
system.cpu0.dcache.LockedRMWReadReq.missRate::total     0.033623                       # miss rate for LockedRMWReadReq accesses (Ratio)
system.cpu0.dcache.LockedRMWWriteReq.hits::cpu0.data       519317                       # number of LockedRMWWriteReq hits (Count)
system.cpu0.dcache.LockedRMWWriteReq.hits::total       519317                       # number of LockedRMWWriteReq hits (Count)
system.cpu0.dcache.LockedRMWWriteReq.accesses::cpu0.data       519317                       # number of LockedRMWWriteReq accesses(hits+misses) (Count)
system.cpu0.dcache.LockedRMWWriteReq.accesses::total       519317                       # number of LockedRMWWriteReq accesses(hits+misses) (Count)
system.cpu0.dcache.ReadReq.hits::cpu0.data     62387198                       # number of ReadReq hits (Count)
system.cpu0.dcache.ReadReq.hits::total       62387198                       # number of ReadReq hits (Count)
system.cpu0.dcache.ReadReq.misses::cpu0.data       158293                       # number of ReadReq misses (Count)
system.cpu0.dcache.ReadReq.misses::total       158293                       # number of ReadReq misses (Count)
system.cpu0.dcache.ReadReq.accesses::cpu0.data     62545491                       # number of ReadReq accesses(hits+misses) (Count)
system.cpu0.dcache.ReadReq.accesses::total     62545491                       # number of ReadReq accesses(hits+misses) (Count)
system.cpu0.dcache.ReadReq.missRate::cpu0.data     0.002531                       # miss rate for ReadReq accesses (Ratio)
system.cpu0.dcache.ReadReq.missRate::total     0.002531                       # miss rate for ReadReq accesses (Ratio)
system.cpu0.dcache.SoftPFReq.hits::cpu0.data        44593                       # number of SoftPFReq hits (Count)
system.cpu0.dcache.SoftPFReq.hits::total        44593                       # number of SoftPFReq hits (Count)
system.cpu0.dcache.SoftPFReq.misses::cpu0.data       127120                       # number of SoftPFReq misses (Count)
system.cpu0.dcache.SoftPFReq.misses::total       127120                       # number of SoftPFReq misses (Count)
system.cpu0.dcache.SoftPFReq.accesses::cpu0.data       171713                       # number of SoftPFReq accesses(hits+misses) (Count)
system.cpu0.dcache.SoftPFReq.accesses::total       171713                       # number of SoftPFReq accesses(hits+misses) (Count)
system.cpu0.dcache.SoftPFReq.missRate::cpu0.data     0.740305                       # miss rate for SoftPFReq accesses (Ratio)
system.cpu0.dcache.SoftPFReq.missRate::total     0.740305                       # miss rate for SoftPFReq accesses (Ratio)
system.cpu0.dcache.WriteReq.hits::cpu0.data     18761473                       # number of WriteReq hits (Count)
system.cpu0.dcache.WriteReq.hits::total      18761473                       # number of WriteReq hits (Count)
system.cpu0.dcache.WriteReq.misses::cpu0.data       403875                       # number of WriteReq misses (Count)
system.cpu0.dcache.WriteReq.misses::total       403875                       # number of WriteReq misses (Count)
system.cpu0.dcache.WriteReq.accesses::cpu0.data     19165348                       # number of WriteReq accesses(hits+misses) (Count)
system.cpu0.dcache.WriteReq.accesses::total     19165348                       # number of WriteReq accesses(hits+misses) (Count)
system.cpu0.dcache.WriteReq.missRate::cpu0.data     0.021073                       # miss rate for WriteReq accesses (Ratio)
system.cpu0.dcache.WriteReq.missRate::total     0.021073                       # miss rate for WriteReq accesses (Ratio)
system.cpu0.dcache.power_state.pwrStateResidencyTicks::UNDEFINED 4794840641000                       # Cumulative time (in ticks) in various power states (Tick)
system.cpu0.dcache.tags.tagsInUse         4073.391833                       # Average ticks per tags in use ((Tick/Count))
system.cpu0.dcache.tags.totalRefs            82519688                       # Total number of references to valid blocks. (Count)
system.cpu0.dcache.tags.sampledRefs            661494                       # Sample count of references to valid blocks. (Count)
system.cpu0.dcache.tags.avgRefs            124.747447                       # Average number of references to valid blocks. ((Count/Count))
system.cpu0.dcache.tags.warmupTick              12000                       # The tick when the warmup percentage was hit. (Tick)
system.cpu0.dcache.tags.occupancies::cpu0.data  4073.391833                       # Average occupied blocks per tick, per requestor ((Count/Tick))
system.cpu0.dcache.tags.avgOccs::cpu0.data     0.994480                       # Average percentage of cache occupancy ((Ratio/Tick))
system.cpu0.dcache.tags.avgOccs::total       0.994480                       # Average percentage of cache occupancy ((Ratio/Tick))
system.cpu0.dcache.tags.occupanciesTaskId::1024         2903                       # Occupied blocks per task id (Count)
system.cpu0.dcache.tags.ageTaskId_1024::2           23                       # Occupied blocks per task id, per block age (Count)
system.cpu0.dcache.tags.ageTaskId_1024::3         2878                       # Occupied blocks per task id, per block age (Count)
system.cpu0.dcache.tags.ageTaskId_1024::4            2                       # Occupied blocks per task id, per block age (Count)
system.cpu0.dcache.tags.ratioOccsTaskId::1024     0.708740                       # Ratio of occupied blocks and all blocks, per task id (Ratio)
system.cpu0.dcache.tags.tagAccesses         664033885                       # Number of tag accesses (Count)
system.cpu0.dcache.tags.dataAccesses        664033885                       # Number of data accesses (Count)
system.cpu0.dcache.tags.power_state.pwrStateResidencyTicks::UNDEFINED 4794840641000                       # Cumulative time (in ticks) in various power states (Tick)
system.cpu0.dtb_walker_cache.demandHits::cpu0.mmu.dtb.walker         1199                       # number of demand (read+write) hits (Count)
system.cpu0.dtb_walker_cache.demandHits::total         1199                       # number of demand (read+write) hits (Count)
system.cpu0.dtb_walker_cache.overallHits::cpu0.mmu.dtb.walker         1199                       # number of overall hits (Count)
system.cpu0.dtb_walker_cache.overallHits::total         1199                       # number of overall hits (Count)
system.cpu0.dtb_walker_cache.demandMisses::cpu0.mmu.dtb.walker         1132                       # number of demand (read+write) misses (Count)
system.cpu0.dtb_walker_cache.demandMisses::total         1132                       # number of demand (read+write) misses (Count)
system.cpu0.dtb_walker_cache.overallMisses::cpu0.mmu.dtb.walker         1132                       # number of overall misses (Count)
system.cpu0.dtb_walker_cache.overallMisses::total         1132                       # number of overall misses (Count)
system.cpu0.dtb_walker_cache.demandAccesses::cpu0.mmu.dtb.walker         2331                       # number of demand (read+write) accesses (Count)
system.cpu0.dtb_walker_cache.demandAccesses::total         2331                       # number of demand (read+write) accesses (Count)
system.cpu0.dtb_walker_cache.overallAccesses::cpu0.mmu.dtb.walker         2331                       # number of overall (read+write) accesses (Count)
system.cpu0.dtb_walker_cache.overallAccesses::total         2331                       # number of overall (read+write) accesses (Count)
system.cpu0.dtb_walker_cache.demandMissRate::cpu0.mmu.dtb.walker     0.485628                       # miss rate for demand accesses (Ratio)
system.cpu0.dtb_walker_cache.demandMissRate::total     0.485628                       # miss rate for demand accesses (Ratio)
system.cpu0.dtb_walker_cache.overallMissRate::cpu0.mmu.dtb.walker     0.485628                       # miss rate for overall accesses (Ratio)
system.cpu0.dtb_walker_cache.overallMissRate::total     0.485628                       # miss rate for overall accesses (Ratio)
system.cpu0.dtb_walker_cache.blockedCycles::no_mshrs            0                       # number of cycles access was blocked (Cycle)
system.cpu0.dtb_walker_cache.blockedCycles::no_targets            0                       # number of cycles access was blocked (Cycle)
system.cpu0.dtb_walker_cache.blockedCauses::no_mshrs            0                       # number of times access was blocked (Count)
system.cpu0.dtb_walker_cache.blockedCauses::no_targets            0                       # number of times access was blocked (Count)
system.cpu0.dtb_walker_cache.avgBlocked::no_mshrs          nan                       # average number of cycles each access was blocked ((Cycle/Count))
system.cpu0.dtb_walker_cache.avgBlocked::no_targets          nan                       # average number of cycles each access was blocked ((Cycle/Count))
system.cpu0.dtb_walker_cache.writebacks::writebacks           10                       # number of writebacks (Count)
system.cpu0.dtb_walker_cache.writebacks::total           10                       # number of writebacks (Count)
system.cpu0.dtb_walker_cache.replacements          897                       # number of replacements (Count)
system.cpu0.dtb_walker_cache.ReadReq.hits::cpu0.mmu.dtb.walker         1199                       # number of ReadReq hits (Count)
system.cpu0.dtb_walker_cache.ReadReq.hits::total         1199                       # number of ReadReq hits (Count)
system.cpu0.dtb_walker_cache.ReadReq.misses::cpu0.mmu.dtb.walker         1132                       # number of ReadReq misses (Count)
system.cpu0.dtb_walker_cache.ReadReq.misses::total         1132                       # number of ReadReq misses (Count)
system.cpu0.dtb_walker_cache.ReadReq.accesses::cpu0.mmu.dtb.walker         2331                       # number of ReadReq accesses(hits+misses) (Count)
system.cpu0.dtb_walker_cache.ReadReq.accesses::total         2331                       # number of ReadReq accesses(hits+misses) (Count)
system.cpu0.dtb_walker_cache.ReadReq.missRate::cpu0.mmu.dtb.walker     0.485628                       # miss rate for ReadReq accesses (Ratio)
system.cpu0.dtb_walker_cache.ReadReq.missRate::total     0.485628                       # miss rate for ReadReq accesses (Ratio)
system.cpu0.dtb_walker_cache.power_state.pwrStateResidencyTicks::UNDEFINED 4794840641000                       # Cumulative time (in ticks) in various power states (Tick)
system.cpu0.dtb_walker_cache.tags.tagsInUse     7.834667                       # Average ticks per tags in use ((Tick/Count))
system.cpu0.dtb_walker_cache.tags.totalRefs         2330                       # Total number of references to valid blocks. (Count)
system.cpu0.dtb_walker_cache.tags.sampledRefs         1131                       # Sample count of references to valid blocks. (Count)
system.cpu0.dtb_walker_cache.tags.avgRefs     2.060124                       # Average number of references to valid blocks. ((Count/Count))
system.cpu0.dtb_walker_cache.tags.warmupTick        12000                       # The tick when the warmup percentage was hit. (Tick)
system.cpu0.dtb_walker_cache.tags.occupancies::cpu0.mmu.dtb.walker     7.834667                       # Average occupied blocks per tick, per requestor ((Count/Tick))
system.cpu0.dtb_walker_cache.tags.avgOccs::cpu0.mmu.dtb.walker     0.489667                       # Average percentage of cache occupancy ((Ratio/Tick))
system.cpu0.dtb_walker_cache.tags.avgOccs::total     0.489667                       # Average percentage of cache occupancy ((Ratio/Tick))
system.cpu0.dtb_walker_cache.tags.occupanciesTaskId::1024            1                       # Occupied blocks per task id (Count)
system.cpu0.dtb_walker_cache.tags.ageTaskId_1024::3            1                       # Occupied blocks per task id, per block age (Count)
system.cpu0.dtb_walker_cache.tags.ratioOccsTaskId::1024     0.062500                       # Ratio of occupied blocks and all blocks, per task id (Ratio)
system.cpu0.dtb_walker_cache.tags.tagAccesses         5794                       # Number of tag accesses (Count)
system.cpu0.dtb_walker_cache.tags.dataAccesses         5794                       # Number of data accesses (Count)
system.cpu0.dtb_walker_cache.tags.power_state.pwrStateResidencyTicks::UNDEFINED 4794840641000                       # Cumulative time (in ticks) in various power states (Tick)
system.cpu0.exec_context.thread_0.numMatAluAccesses            0                       # Number of matrix alu accesses (Count)
system.cpu0.exec_context.thread_0.numCallsReturns      2437729                       # Number of times a function call or return occured (Count)
system.cpu0.exec_context.thread_0.numMatInsts            0                       # Number of matrix instructions (Count)
system.cpu0.exec_context.thread_0.numIdleCycles 8926276973.904985                       # Number of idle cycles (Cycle)
system.cpu0.exec_context.thread_0.numBusyCycles 664608894.095014                       # Number of busy cycles (Cycle)
system.cpu0.exec_context.thread_0.notIdleFraction     0.069296                       # Percentage of non-idle cycles (Ratio)
system.cpu0.exec_context.thread_0.idleFraction     0.930704                       # Percentage of idle cycles (Ratio)
system.cpu0.executeStats0.numInsts                  0                       # Number of executed instructions (Count)
system.cpu0.executeStats0.numNop                    0                       # Number of nop insts executed (Count)
system.cpu0.executeStats0.numBranches               0                       # Number of branches executed (Count)
system.cpu0.executeStats0.numLoadInsts              0                       # Number of load instructions executed (Count)
system.cpu0.executeStats0.numStoreInsts      85853218                       # Number of stores executed (Count)
system.cpu0.executeStats0.instRate                  0                       # Inst execution rate ((Count/Cycle))
system.cpu0.executeStats0.numFpAluAccesses         9317                       # Number of float alu accesses (Count)
system.cpu0.executeStats0.numFpRegReads         15711                       # Number of times the floating registers were read (Count)
system.cpu0.executeStats0.numFpRegWrites         7370                       # Number of times the floating registers were written (Count)
system.cpu0.executeStats0.numIntAluAccesses    526246444                       # Number of integer alu accesses (Count)
system.cpu0.executeStats0.numIntRegReads    486473116                       # Number of times the integer registers were read (Count)
system.cpu0.executeStats0.numIntRegWrites    375017992                       # Number of times the integer registers were written (Count)
system.cpu0.executeStats0.numMemRefs         85853218                       # Number of memory refs (Count)
system.cpu0.executeStats0.numMiscRegReads    268433414                       # Number of times the Misc registers were read (Count)
system.cpu0.executeStats0.numMiscRegWrites       179980                       # Number of times the Misc registers were written (Count)
system.cpu0.executeStats0.numVecAluAccesses            0                       # Number of vector alu accesses (Count)
system.cpu0.executeStats0.numDiscardedOps            0                       # Number of ops (including micro ops) which were discarded before commit (Count)
system.cpu0.fetchStats0.numInsts            223863515                       # Number of instructions fetched (thread level) (Count)
system.cpu0.fetchStats0.numOps              593574135                       # Number of ops (including micro ops) fetched (thread level) (Count)
system.cpu0.fetchStats0.fetchRate            0.023341                       # Number of inst fetches per cycle ((Count/Cycle))
system.cpu0.fetchStats0.numBranches          79248388                       # Number of branches fetched (Count)
system.cpu0.fetchStats0.branchRate           0.008263                       # Number of branch fetches per cycle (Ratio)
system.cpu0.fetchStats0.numFetchSuspends            0                       # Number of times Execute suspended instruction fetching (Count)
system.cpu0.icache.demandHits::cpu0.inst    296121752                       # number of demand (read+write) hits (Count)
system.cpu0.icache.demandHits::total        296121752                       # number of demand (read+write) hits (Count)
system.cpu0.icache.overallHits::cpu0.inst    296121752                       # number of overall hits (Count)
system.cpu0.icache.overallHits::total       296121752                       # number of overall hits (Count)
system.cpu0.icache.demandMisses::cpu0.inst        12682                       # number of demand (read+write) misses (Count)
system.cpu0.icache.demandMisses::total          12682                       # number of demand (read+write) misses (Count)
system.cpu0.icache.overallMisses::cpu0.inst        12682                       # number of overall misses (Count)
system.cpu0.icache.overallMisses::total         12682                       # number of overall misses (Count)
system.cpu0.icache.demandAccesses::cpu0.inst    296134434                       # number of demand (read+write) accesses (Count)
system.cpu0.icache.demandAccesses::total    296134434                       # number of demand (read+write) accesses (Count)
system.cpu0.icache.overallAccesses::cpu0.inst    296134434                       # number of overall (read+write) accesses (Count)
system.cpu0.icache.overallAccesses::total    296134434                       # number of overall (read+write) accesses (Count)
system.cpu0.icache.demandMissRate::cpu0.inst     0.000043                       # miss rate for demand accesses (Ratio)
system.cpu0.icache.demandMissRate::total     0.000043                       # miss rate for demand accesses (Ratio)
system.cpu0.icache.overallMissRate::cpu0.inst     0.000043                       # miss rate for overall accesses (Ratio)
system.cpu0.icache.overallMissRate::total     0.000043                       # miss rate for overall accesses (Ratio)
system.cpu0.icache.blockedCycles::no_mshrs            0                       # number of cycles access was blocked (Cycle)
system.cpu0.icache.blockedCycles::no_targets            0                       # number of cycles access was blocked (Cycle)
system.cpu0.icache.blockedCauses::no_mshrs            0                       # number of times access was blocked (Count)
system.cpu0.icache.blockedCauses::no_targets            0                       # number of times access was blocked (Count)
system.cpu0.icache.avgBlocked::no_mshrs           nan                       # average number of cycles each access was blocked ((Cycle/Count))
system.cpu0.icache.avgBlocked::no_targets          nan                       # average number of cycles each access was blocked ((Cycle/Count))
system.cpu0.icache.writebacks::writebacks         8292                       # number of writebacks (Count)
system.cpu0.icache.writebacks::total             8292                       # number of writebacks (Count)
system.cpu0.icache.replacements                  8292                       # number of replacements (Count)
system.cpu0.icache.ReadReq.hits::cpu0.inst    296121752                       # number of ReadReq hits (Count)
system.cpu0.icache.ReadReq.hits::total      296121752                       # number of ReadReq hits (Count)
system.cpu0.icache.ReadReq.misses::cpu0.inst        12682                       # number of ReadReq misses (Count)
system.cpu0.icache.ReadReq.misses::total        12682                       # number of ReadReq misses (Count)
system.cpu0.icache.ReadReq.accesses::cpu0.inst    296134434                       # number of ReadReq accesses(hits+misses) (Count)
system.cpu0.icache.ReadReq.accesses::total    296134434                       # number of ReadReq accesses(hits+misses) (Count)
system.cpu0.icache.ReadReq.missRate::cpu0.inst     0.000043                       # miss rate for ReadReq accesses (Ratio)
system.cpu0.icache.ReadReq.missRate::total     0.000043                       # miss rate for ReadReq accesses (Ratio)
system.cpu0.icache.power_state.pwrStateResidencyTicks::UNDEFINED 4794840641000                       # Cumulative time (in ticks) in various power states (Tick)
system.cpu0.icache.tags.tagsInUse         3898.564265                       # Average ticks per tags in use ((Tick/Count))
system.cpu0.icache.tags.totalRefs           275287381                       # Total number of references to valid blocks. (Count)
system.cpu0.icache.tags.sampledRefs              8587                       # Sample count of references to valid blocks. (Count)
system.cpu0.icache.tags.avgRefs          32058.621288                       # Average number of references to valid blocks. ((Count/Count))
system.cpu0.icache.tags.warmupTick                  0                       # The tick when the warmup percentage was hit. (Tick)
system.cpu0.icache.tags.occupancies::cpu0.inst  3898.564265                       # Average occupied blocks per tick, per requestor ((Count/Tick))
system.cpu0.icache.tags.avgOccs::cpu0.inst     0.951798                       # Average percentage of cache occupancy ((Ratio/Tick))
system.cpu0.icache.tags.avgOccs::total       0.951798                       # Average percentage of cache occupancy ((Ratio/Tick))
system.cpu0.icache.tags.occupanciesTaskId::1024         4095                       # Occupied blocks per task id (Count)
system.cpu0.icache.tags.ageTaskId_1024::2            8                       # Occupied blocks per task id, per block age (Count)
system.cpu0.icache.tags.ageTaskId_1024::3         2992                       # Occupied blocks per task id, per block age (Count)
system.cpu0.icache.tags.ageTaskId_1024::4         1095                       # Occupied blocks per task id, per block age (Count)
system.cpu0.icache.tags.ratioOccsTaskId::1024     0.999756                       # Ratio of occupied blocks and all blocks, per task id (Ratio)
system.cpu0.icache.tags.tagAccesses        2369088154                       # Number of tag accesses (Count)
system.cpu0.icache.tags.dataAccesses       2369088154                       # Number of data accesses (Count)
system.cpu0.icache.tags.power_state.pwrStateResidencyTicks::UNDEFINED 4794840641000                       # Cumulative time (in ticks) in various power states (Tick)
system.cpu0.interrupts.clk_domain.clock          8000                       # Clock period in ticks (Tick)
system.cpu0.itb_walker_cache.demandHits::cpu0.mmu.itb.walker          747                       # number of demand (read+write) hits (Count)
system.cpu0.itb_walker_cache.demandHits::total          747                       # number of demand (read+write) hits (Count)
system.cpu0.itb_walker_cache.overallHits::cpu0.mmu.itb.walker          747                       # number of overall hits (Count)
system.cpu0.itb_walker_cache.overallHits::total          747                       # number of overall hits (Count)
system.cpu0.itb_walker_cache.demandMisses::cpu0.mmu.itb.walker         1204                       # number of demand (read+write) misses (Count)
system.cpu0.itb_walker_cache.demandMisses::total         1204                       # number of demand (read+write) misses (Count)
system.cpu0.itb_walker_cache.overallMisses::cpu0.mmu.itb.walker         1204                       # number of overall misses (Count)
system.cpu0.itb_walker_cache.overallMisses::total         1204                       # number of overall misses (Count)
system.cpu0.itb_walker_cache.demandAccesses::cpu0.mmu.itb.walker         1951                       # number of demand (read+write) accesses (Count)
system.cpu0.itb_walker_cache.demandAccesses::total         1951                       # number of demand (read+write) accesses (Count)
system.cpu0.itb_walker_cache.overallAccesses::cpu0.mmu.itb.walker         1951                       # number of overall (read+write) accesses (Count)
system.cpu0.itb_walker_cache.overallAccesses::total         1951                       # number of overall (read+write) accesses (Count)
system.cpu0.itb_walker_cache.demandMissRate::cpu0.mmu.itb.walker     0.617119                       # miss rate for demand accesses (Ratio)
system.cpu0.itb_walker_cache.demandMissRate::total     0.617119                       # miss rate for demand accesses (Ratio)
system.cpu0.itb_walker_cache.overallMissRate::cpu0.mmu.itb.walker     0.617119                       # miss rate for overall accesses (Ratio)
system.cpu0.itb_walker_cache.overallMissRate::total     0.617119                       # miss rate for overall accesses (Ratio)
system.cpu0.itb_walker_cache.blockedCycles::no_mshrs            0                       # number of cycles access was blocked (Cycle)
system.cpu0.itb_walker_cache.blockedCycles::no_targets            0                       # number of cycles access was blocked (Cycle)
system.cpu0.itb_walker_cache.blockedCauses::no_mshrs            0                       # number of times access was blocked (Count)
system.cpu0.itb_walker_cache.blockedCauses::no_targets            0                       # number of times access was blocked (Count)
system.cpu0.itb_walker_cache.avgBlocked::no_mshrs          nan                       # average number of cycles each access was blocked ((Cycle/Count))
system.cpu0.itb_walker_cache.avgBlocked::no_targets          nan                       # average number of cycles each access was blocked ((Cycle/Count))
system.cpu0.itb_walker_cache.writebacks::writebacks            3                       # number of writebacks (Count)
system.cpu0.itb_walker_cache.writebacks::total            3                       # number of writebacks (Count)
system.cpu0.itb_walker_cache.replacements         1033                       # number of replacements (Count)
system.cpu0.itb_walker_cache.ReadReq.hits::cpu0.mmu.itb.walker          745                       # number of ReadReq hits (Count)
system.cpu0.itb_walker_cache.ReadReq.hits::total          745                       # number of ReadReq hits (Count)
system.cpu0.itb_walker_cache.ReadReq.misses::cpu0.mmu.itb.walker         1204                       # number of ReadReq misses (Count)
system.cpu0.itb_walker_cache.ReadReq.misses::total         1204                       # number of ReadReq misses (Count)
system.cpu0.itb_walker_cache.ReadReq.accesses::cpu0.mmu.itb.walker         1949                       # number of ReadReq accesses(hits+misses) (Count)
system.cpu0.itb_walker_cache.ReadReq.accesses::total         1949                       # number of ReadReq accesses(hits+misses) (Count)
system.cpu0.itb_walker_cache.ReadReq.missRate::cpu0.mmu.itb.walker     0.617753                       # miss rate for ReadReq accesses (Ratio)
system.cpu0.itb_walker_cache.ReadReq.missRate::total     0.617753                       # miss rate for ReadReq accesses (Ratio)
system.cpu0.itb_walker_cache.WriteReq.hits::cpu0.mmu.itb.walker            2                       # number of WriteReq hits (Count)
system.cpu0.itb_walker_cache.WriteReq.hits::total            2                       # number of WriteReq hits (Count)
system.cpu0.itb_walker_cache.WriteReq.accesses::cpu0.mmu.itb.walker            2                       # number of WriteReq accesses(hits+misses) (Count)
system.cpu0.itb_walker_cache.WriteReq.accesses::total            2                       # number of WriteReq accesses(hits+misses) (Count)
system.cpu0.itb_walker_cache.power_state.pwrStateResidencyTicks::UNDEFINED 4794840641000                       # Cumulative time (in ticks) in various power states (Tick)
system.cpu0.itb_walker_cache.tags.tagsInUse     4.004643                       # Average ticks per tags in use ((Tick/Count))
system.cpu0.itb_walker_cache.tags.totalRefs         1951                       # Total number of references to valid blocks. (Count)
system.cpu0.itb_walker_cache.tags.sampledRefs         1204                       # Sample count of references to valid blocks. (Count)
system.cpu0.itb_walker_cache.tags.avgRefs     1.620432                       # Average number of references to valid blocks. ((Count/Count))
system.cpu0.itb_walker_cache.tags.warmupTick            0                       # The tick when the warmup percentage was hit. (Tick)
system.cpu0.itb_walker_cache.tags.occupancies::cpu0.mmu.itb.walker     4.004643                       # Average occupied blocks per tick, per requestor ((Count/Tick))
system.cpu0.itb_walker_cache.tags.avgOccs::cpu0.mmu.itb.walker     0.250290                       # Average percentage of cache occupancy ((Ratio/Tick))
system.cpu0.itb_walker_cache.tags.avgOccs::total     0.250290                       # Average percentage of cache occupancy ((Ratio/Tick))
system.cpu0.itb_walker_cache.tags.tagAccesses         5106                       # Number of tag accesses (Count)
system.cpu0.itb_walker_cache.tags.dataAccesses         5106                       # Number of data accesses (Count)
system.cpu0.itb_walker_cache.tags.power_state.pwrStateResidencyTicks::UNDEFINED 4794840641000                       # Cumulative time (in ticks) in various power states (Tick)
system.cpu0.mmu.dtb.rdAccesses               63239289                       # TLB accesses on read requests (Count)
system.cpu0.mmu.dtb.wrAccesses               19687086                       # TLB accesses on write requests (Count)
system.cpu0.mmu.dtb.rdMisses                      430                       # TLB misses on read requests (Count)
system.cpu0.mmu.dtb.wrMisses                      256                       # TLB misses on write requests (Count)
system.cpu0.mmu.dtb.walker.power_state.pwrStateResidencyTicks::UNDEFINED 4794840641000                       # Cumulative time (in ticks) in various power states (Tick)
system.cpu0.mmu.itb.rdAccesses                      0                       # TLB accesses on read requests (Count)
system.cpu0.mmu.itb.wrAccesses              296134530                       # TLB accesses on write requests (Count)
system.cpu0.mmu.itb.rdMisses                        0                       # TLB misses on read requests (Count)
system.cpu0.mmu.itb.wrMisses                      497                       # TLB misses on write requests (Count)
system.cpu0.mmu.itb.walker.power_state.pwrStateResidencyTicks::UNDEFINED 4794840641000                       # Cumulative time (in ticks) in various power states (Tick)
system.cpu0.power_state.numTransitions          15649                       # Number of power state transitions (Count)
system.cpu0.power_state.ticksClkGated::samples         7808                       # Distribution of time spent in the clock gated state (Tick)
system.cpu0.power_state.ticksClkGated::mean 571539181.656890                       # Distribution of time spent in the clock gated state (Tick)
system.cpu0.power_state.ticksClkGated::stdev 1380948977.172182                       # Distribution of time spent in the clock gated state (Tick)
system.cpu0.power_state.ticksClkGated::1000-5e+10         7808    100.00%    100.00% # Distribution of time spent in the clock gated state (Tick)
system.cpu0.power_state.ticksClkGated::min_value       268049                       # Distribution of time spent in the clock gated state (Tick)
system.cpu0.power_state.ticksClkGated::max_value   3996216500                       # Distribution of time spent in the clock gated state (Tick)
system.cpu0.power_state.ticksClkGated::total         7808                       # Distribution of time spent in the clock gated state (Tick)
system.cpu0.power_state.pwrStateResidencyTicks::ON 332262710623                       # Cumulative time (in ticks) in various power states (Tick)
system.cpu0.power_state.pwrStateResidencyTicks::CLK_GATED 4462577930377                       # Cumulative time (in ticks) in various power states (Tick)
system.cpu0.thread_0.numInsts                       0                       # Number of Instructions committed (Count)
system.cpu0.thread_0.numOps                         0                       # Number of Ops committed (Count)
system.cpu0.thread_0.numMemRefs                     0                       # Number of Memory References (Count)
system.cpu1.numCycles                      9589886986                       # Number of cpu cycles simulated (Cycle)
system.cpu1.cpi                            614.571120                       # CPI: cycles per instruction (core level) ((Cycle/Count))
system.cpu1.ipc                              0.001627                       # IPC: instructions per cycle (core level) ((Count/Cycle))
system.cpu1.numWorkItemsStarted                     0                       # Number of work items this cpu started (Count)
system.cpu1.numWorkItemsCompleted                   0                       # Number of work items this cpu completed (Count)
system.cpu1.commitStats0.numInsts            15604194                       # Number of instructions committed (thread level) (Count)
system.cpu1.commitStats0.numOps              32606986                       # Number of ops (including micro ops) committed (thread level) (Count)
system.cpu1.commitStats0.numInstsNotNOP             0                       # Number of instructions committed excluding NOPs or prefetches (Count)
system.cpu1.commitStats0.numOpsNotNOP               0                       # Number of Ops (including micro ops) Simulated (Count)
system.cpu1.commitStats0.cpi               614.571120                       # CPI: cycles per instruction (thread level) ((Cycle/Count))
system.cpu1.commitStats0.ipc                 0.001627                       # IPC: instructions per cycle (thread level) ((Count/Cycle))
system.cpu1.commitStats0.numMemRefs                 0                       # Number of memory references committed (Count)
system.cpu1.commitStats0.numFpInsts             22324                       # Number of float instructions (Count)
system.cpu1.commitStats0.numIntInsts         31574161                       # Number of integer instructions (Count)
system.cpu1.commitStats0.numLoadInsts         4796655                       # Number of load instructions (Count)
system.cpu1.commitStats0.numStoreInsts        3182522                       # Number of store instructions (Count)
system.cpu1.commitStats0.numVecInsts                0                       # Number of vector instructions (Count)
system.cpu1.commitStats0.committedInstType::No_OpClass        71445      0.22%      0.22% # Class of committed instruction. (Count)
system.cpu1.commitStats0.committedInstType::IntAlu     24467361     75.04%     75.26% # Class of committed instruction. (Count)
system.cpu1.commitStats0.committedInstType::IntMult        59641      0.18%     75.44% # Class of committed instruction. (Count)
system.cpu1.commitStats0.committedInstType::IntDiv        16735      0.05%     75.49% # Class of committed instruction. (Count)
system.cpu1.commitStats0.committedInstType::FloatAdd          362      0.00%     75.49% # Class of committed instruction. (Count)
system.cpu1.commitStats0.committedInstType::FloatCmp            0      0.00%     75.49% # Class of committed instruction. (Count)
system.cpu1.commitStats0.committedInstType::FloatCvt           16      0.00%     75.49% # Class of committed instruction. (Count)
system.cpu1.commitStats0.committedInstType::FloatMult            0      0.00%     75.49% # Class of committed instruction. (Count)
system.cpu1.commitStats0.committedInstType::FloatMultAcc            0      0.00%     75.49% # Class of committed instruction. (Count)
system.cpu1.commitStats0.committedInstType::FloatDiv            0      0.00%     75.49% # Class of committed instruction. (Count)
system.cpu1.commitStats0.committedInstType::FloatMisc            0      0.00%     75.49% # Class of committed instruction. (Count)
system.cpu1.commitStats0.committedInstType::FloatSqrt            0      0.00%     75.49% # Class of committed instruction. (Count)
system.cpu1.commitStats0.committedInstType::SimdAdd          786      0.00%     75.49% # Class of committed instruction. (Count)
system.cpu1.commitStats0.committedInstType::SimdAddAcc            0      0.00%     75.49% # Class of committed instruction. (Count)
system.cpu1.commitStats0.committedInstType::SimdAlu         2455      0.01%     75.50% # Class of committed instruction. (Count)
system.cpu1.commitStats0.committedInstType::SimdCmp            0      0.00%     75.50% # Class of committed instruction. (Count)
system.cpu1.commitStats0.committedInstType::SimdCvt         5164      0.02%     75.52% # Class of committed instruction. (Count)
system.cpu1.commitStats0.committedInstType::SimdMisc         6674      0.02%     75.54% # Class of committed instruction. (Count)
system.cpu1.commitStats0.committedInstType::SimdMult            0      0.00%     75.54% # Class of committed instruction. (Count)
system.cpu1.commitStats0.committedInstType::SimdMultAcc            0      0.00%     75.54% # Class of committed instruction. (Count)
system.cpu1.commitStats0.committedInstType::SimdMatMultAcc            0      0.00%     75.54% # Class of committed instruction. (Count)
system.cpu1.commitStats0.committedInstType::SimdShift          331      0.00%     75.54% # Class of committed instruction. (Count)
system.cpu1.commitStats0.committedInstType::SimdShiftAcc            0      0.00%     75.54% # Class of committed instruction. (Count)
system.cpu1.commitStats0.committedInstType::SimdDiv            0      0.00%     75.54% # Class of committed instruction. (Count)
system.cpu1.commitStats0.committedInstType::SimdSqrt            0      0.00%     75.54% # Class of committed instruction. (Count)
system.cpu1.commitStats0.committedInstType::SimdFloatAdd            0      0.00%     75.54% # Class of committed instruction. (Count)
system.cpu1.commitStats0.committedInstType::SimdFloatAlu            0      0.00%     75.54% # Class of committed instruction. (Count)
system.cpu1.commitStats0.committedInstType::SimdFloatCmp            0      0.00%     75.54% # Class of committed instruction. (Count)
system.cpu1.commitStats0.committedInstType::SimdFloatCvt            0      0.00%     75.54% # Class of committed instruction. (Count)
system.cpu1.commitStats0.committedInstType::SimdFloatDiv            0      0.00%     75.54% # Class of committed instruction. (Count)
system.cpu1.commitStats0.committedInstType::SimdFloatMisc            0      0.00%     75.54% # Class of committed instruction. (Count)
system.cpu1.commitStats0.committedInstType::SimdFloatMult            0      0.00%     75.54% # Class of committed instruction. (Count)
system.cpu1.commitStats0.committedInstType::SimdFloatMultAcc            0      0.00%     75.54% # Class of committed instruction. (Count)
system.cpu1.commitStats0.committedInstType::SimdFloatMatMultAcc            0      0.00%     75.54% # Class of committed instruction. (Count)
system.cpu1.commitStats0.committedInstType::SimdFloatSqrt            0      0.00%     75.54% # Class of committed instruction. (Count)
system.cpu1.commitStats0.committedInstType::SimdReduceAdd            0      0.00%     75.54% # Class of committed instruction. (Count)
system.cpu1.commitStats0.committedInstType::SimdReduceAlu            0      0.00%     75.54% # Class of committed instruction. (Count)
system.cpu1.commitStats0.committedInstType::SimdReduceCmp            0      0.00%     75.54% # Class of committed instruction. (Count)
system.cpu1.commitStats0.committedInstType::SimdFloatReduceAdd            0      0.00%     75.54% # Class of committed instruction. (Count)
system.cpu1.commitStats0.committedInstType::SimdFloatReduceCmp            0      0.00%     75.54% # Class of committed instruction. (Count)
system.cpu1.commitStats0.committedInstType::SimdAes            0      0.00%     75.54% # Class of committed instruction. (Count)
system.cpu1.commitStats0.committedInstType::SimdAesMix            0      0.00%     75.54% # Class of committed instruction. (Count)
system.cpu1.commitStats0.committedInstType::SimdSha1Hash            0      0.00%     75.54% # Class of committed instruction. (Count)
system.cpu1.commitStats0.committedInstType::SimdSha1Hash2            0      0.00%     75.54% # Class of committed instruction. (Count)
system.cpu1.commitStats0.committedInstType::SimdSha256Hash            0      0.00%     75.54% # Class of committed instruction. (Count)
system.cpu1.commitStats0.committedInstType::SimdSha256Hash2            0      0.00%     75.54% # Class of committed instruction. (Count)
system.cpu1.commitStats0.committedInstType::SimdShaSigma2            0      0.00%     75.54% # Class of committed instruction. (Count)
system.cpu1.commitStats0.committedInstType::SimdShaSigma3            0      0.00%     75.54% # Class of committed instruction. (Count)
system.cpu1.commitStats0.committedInstType::SimdPredAlu            0      0.00%     75.54% # Class of committed instruction. (Count)
system.cpu1.commitStats0.committedInstType::Matrix            0      0.00%     75.54% # Class of committed instruction. (Count)
system.cpu1.commitStats0.committedInstType::MatrixMov            0      0.00%     75.54% # Class of committed instruction. (Count)
system.cpu1.commitStats0.committedInstType::MatrixOP            0      0.00%     75.54% # Class of committed instruction. (Count)
system.cpu1.commitStats0.committedInstType::MemRead      4789378     14.69%     90.23% # Class of committed instruction. (Count)
system.cpu1.commitStats0.committedInstType::MemWrite      3182490      9.76%     99.99% # Class of committed instruction. (Count)
system.cpu1.commitStats0.committedInstType::FloatMemRead         4116      0.01%    100.00% # Class of committed instruction. (Count)
system.cpu1.commitStats0.committedInstType::FloatMemWrite           32      0.00%    100.00% # Class of committed instruction. (Count)
system.cpu1.commitStats0.committedInstType::IprAccess            0      0.00%    100.00% # Class of committed instruction. (Count)
system.cpu1.commitStats0.committedInstType::InstPrefetch            0      0.00%    100.00% # Class of committed instruction. (Count)
system.cpu1.commitStats0.committedInstType::VectorUnitStrideLoad            0      0.00%    100.00% # Class of committed instruction. (Count)
system.cpu1.commitStats0.committedInstType::VectorUnitStrideStore            0      0.00%    100.00% # Class of committed instruction. (Count)
system.cpu1.commitStats0.committedInstType::VectorUnitStrideMaskLoad            0      0.00%    100.00% # Class of committed instruction. (Count)
system.cpu1.commitStats0.committedInstType::VectorUnitStrideMaskStore            0      0.00%    100.00% # Class of committed instruction. (Count)
system.cpu1.commitStats0.committedInstType::VectorStridedLoad            0      0.00%    100.00% # Class of committed instruction. (Count)
system.cpu1.commitStats0.committedInstType::VectorStridedStore            0      0.00%    100.00% # Class of committed instruction. (Count)
system.cpu1.commitStats0.committedInstType::VectorIndexedLoad            0      0.00%    100.00% # Class of committed instruction. (Count)
system.cpu1.commitStats0.committedInstType::VectorIndexedStore            0      0.00%    100.00% # Class of committed instruction. (Count)
system.cpu1.commitStats0.committedInstType::VectorUnitStrideFaultOnlyFirstLoad            0      0.00%    100.00% # Class of committed instruction. (Count)
system.cpu1.commitStats0.committedInstType::VectorWholeRegisterLoad            0      0.00%    100.00% # Class of committed instruction. (Count)
system.cpu1.commitStats0.committedInstType::VectorWholeRegisterStore            0      0.00%    100.00% # Class of committed instruction. (Count)
system.cpu1.commitStats0.committedInstType::VectorIntegerArith            0      0.00%    100.00% # Class of committed instruction. (Count)
system.cpu1.commitStats0.committedInstType::VectorFloatArith            0      0.00%    100.00% # Class of committed instruction. (Count)
system.cpu1.commitStats0.committedInstType::VectorFloatConvert            0      0.00%    100.00% # Class of committed instruction. (Count)
system.cpu1.commitStats0.committedInstType::VectorIntegerReduce            0      0.00%    100.00% # Class of committed instruction. (Count)
system.cpu1.commitStats0.committedInstType::VectorFloatReduce            0      0.00%    100.00% # Class of committed instruction. (Count)
system.cpu1.commitStats0.committedInstType::VectorMisc            0      0.00%    100.00% # Class of committed instruction. (Count)
system.cpu1.commitStats0.committedInstType::VectorIntegerExtension            0      0.00%    100.00% # Class of committed instruction. (Count)
system.cpu1.commitStats0.committedInstType::VectorConfig            0      0.00%    100.00% # Class of committed instruction. (Count)
system.cpu1.commitStats0.committedInstType::total     32606986                       # Class of committed instruction. (Count)
system.cpu1.commitStats0.committedControl::IsControl      3489204                       # Class of control type instructions committed (Count)
system.cpu1.commitStats0.committedControl::IsDirectControl      3075248                       # Class of control type instructions committed (Count)
system.cpu1.commitStats0.committedControl::IsIndirectControl       407966                       # Class of control type instructions committed (Count)
system.cpu1.commitStats0.committedControl::IsCondControl      2517772                       # Class of control type instructions committed (Count)
system.cpu1.commitStats0.committedControl::IsUncondControl       969996                       # Class of control type instructions committed (Count)
system.cpu1.commitStats0.committedControl::IsCall       362745                       # Class of control type instructions committed (Count)
system.cpu1.commitStats0.committedControl::IsReturn       362590                       # Class of control type instructions committed (Count)
system.cpu1.dcache.demandHits::cpu1.data      7543240                       # number of demand (read+write) hits (Count)
system.cpu1.dcache.demandHits::total          7543240                       # number of demand (read+write) hits (Count)
system.cpu1.dcache.overallHits::cpu1.data      7560967                       # number of overall hits (Count)
system.cpu1.dcache.overallHits::total         7560967                       # number of overall hits (Count)
system.cpu1.dcache.demandMisses::cpu1.data       229803                       # number of demand (read+write) misses (Count)
system.cpu1.dcache.demandMisses::total         229803                       # number of demand (read+write) misses (Count)
system.cpu1.dcache.overallMisses::cpu1.data       238314                       # number of overall misses (Count)
system.cpu1.dcache.overallMisses::total        238314                       # number of overall misses (Count)
system.cpu1.dcache.demandAccesses::cpu1.data      7773043                       # number of demand (read+write) accesses (Count)
system.cpu1.dcache.demandAccesses::total      7773043                       # number of demand (read+write) accesses (Count)
system.cpu1.dcache.overallAccesses::cpu1.data      7799281                       # number of overall (read+write) accesses (Count)
system.cpu1.dcache.overallAccesses::total      7799281                       # number of overall (read+write) accesses (Count)
system.cpu1.dcache.demandMissRate::cpu1.data     0.029564                       # miss rate for demand accesses (Ratio)
system.cpu1.dcache.demandMissRate::total     0.029564                       # miss rate for demand accesses (Ratio)
system.cpu1.dcache.overallMissRate::cpu1.data     0.030556                       # miss rate for overall accesses (Ratio)
system.cpu1.dcache.overallMissRate::total     0.030556                       # miss rate for overall accesses (Ratio)
system.cpu1.dcache.blockedCycles::no_mshrs            0                       # number of cycles access was blocked (Cycle)
system.cpu1.dcache.blockedCycles::no_targets            0                       # number of cycles access was blocked (Cycle)
system.cpu1.dcache.blockedCauses::no_mshrs            0                       # number of times access was blocked (Count)
system.cpu1.dcache.blockedCauses::no_targets            0                       # number of times access was blocked (Count)
system.cpu1.dcache.avgBlocked::no_mshrs           nan                       # average number of cycles each access was blocked ((Cycle/Count))
system.cpu1.dcache.avgBlocked::no_targets          nan                       # average number of cycles each access was blocked ((Cycle/Count))
system.cpu1.dcache.writebacks::writebacks        36634                       # number of writebacks (Count)
system.cpu1.dcache.writebacks::total            36634                       # number of writebacks (Count)
system.cpu1.dcache.replacements                 47858                       # number of replacements (Count)
system.cpu1.dcache.LockedRMWReadReq.hits::cpu1.data        59545                       # number of LockedRMWReadReq hits (Count)
system.cpu1.dcache.LockedRMWReadReq.hits::total        59545                       # number of LockedRMWReadReq hits (Count)
system.cpu1.dcache.LockedRMWReadReq.misses::cpu1.data        32678                       # number of LockedRMWReadReq misses (Count)
system.cpu1.dcache.LockedRMWReadReq.misses::total        32678                       # number of LockedRMWReadReq misses (Count)
system.cpu1.dcache.LockedRMWReadReq.accesses::cpu1.data        92223                       # number of LockedRMWReadReq accesses(hits+misses) (Count)
system.cpu1.dcache.LockedRMWReadReq.accesses::total        92223                       # number of LockedRMWReadReq accesses(hits+misses) (Count)
system.cpu1.dcache.LockedRMWReadReq.missRate::cpu1.data     0.354337                       # miss rate for LockedRMWReadReq accesses (Ratio)
system.cpu1.dcache.LockedRMWReadReq.missRate::total     0.354337                       # miss rate for LockedRMWReadReq accesses (Ratio)
system.cpu1.dcache.LockedRMWWriteReq.hits::cpu1.data        92223                       # number of LockedRMWWriteReq hits (Count)
system.cpu1.dcache.LockedRMWWriteReq.hits::total        92223                       # number of LockedRMWWriteReq hits (Count)
system.cpu1.dcache.LockedRMWWriteReq.accesses::cpu1.data        92223                       # number of LockedRMWWriteReq accesses(hits+misses) (Count)
system.cpu1.dcache.LockedRMWWriteReq.accesses::total        92223                       # number of LockedRMWWriteReq accesses(hits+misses) (Count)
system.cpu1.dcache.ReadReq.hits::cpu1.data      4590192                       # number of ReadReq hits (Count)
system.cpu1.dcache.ReadReq.hits::total        4590192                       # number of ReadReq hits (Count)
system.cpu1.dcache.ReadReq.misses::cpu1.data        90693                       # number of ReadReq misses (Count)
system.cpu1.dcache.ReadReq.misses::total        90693                       # number of ReadReq misses (Count)
system.cpu1.dcache.ReadReq.accesses::cpu1.data      4680885                       # number of ReadReq accesses(hits+misses) (Count)
system.cpu1.dcache.ReadReq.accesses::total      4680885                       # number of ReadReq accesses(hits+misses) (Count)
system.cpu1.dcache.ReadReq.missRate::cpu1.data     0.019375                       # miss rate for ReadReq accesses (Ratio)
system.cpu1.dcache.ReadReq.missRate::total     0.019375                       # miss rate for ReadReq accesses (Ratio)
system.cpu1.dcache.SoftPFReq.hits::cpu1.data        17727                       # number of SoftPFReq hits (Count)
system.cpu1.dcache.SoftPFReq.hits::total        17727                       # number of SoftPFReq hits (Count)
system.cpu1.dcache.SoftPFReq.misses::cpu1.data         8511                       # number of SoftPFReq misses (Count)
system.cpu1.dcache.SoftPFReq.misses::total         8511                       # number of SoftPFReq misses (Count)
system.cpu1.dcache.SoftPFReq.accesses::cpu1.data        26238                       # number of SoftPFReq accesses(hits+misses) (Count)
system.cpu1.dcache.SoftPFReq.accesses::total        26238                       # number of SoftPFReq accesses(hits+misses) (Count)
system.cpu1.dcache.SoftPFReq.missRate::cpu1.data     0.324377                       # miss rate for SoftPFReq accesses (Ratio)
system.cpu1.dcache.SoftPFReq.missRate::total     0.324377                       # miss rate for SoftPFReq accesses (Ratio)
system.cpu1.dcache.WriteReq.hits::cpu1.data      2953048                       # number of WriteReq hits (Count)
system.cpu1.dcache.WriteReq.hits::total       2953048                       # number of WriteReq hits (Count)
system.cpu1.dcache.WriteReq.misses::cpu1.data       139110                       # number of WriteReq misses (Count)
system.cpu1.dcache.WriteReq.misses::total       139110                       # number of WriteReq misses (Count)
system.cpu1.dcache.WriteReq.accesses::cpu1.data      3092158                       # number of WriteReq accesses(hits+misses) (Count)
system.cpu1.dcache.WriteReq.accesses::total      3092158                       # number of WriteReq accesses(hits+misses) (Count)
system.cpu1.dcache.WriteReq.missRate::cpu1.data     0.044988                       # miss rate for WriteReq accesses (Ratio)
system.cpu1.dcache.WriteReq.missRate::total     0.044988                       # miss rate for WriteReq accesses (Ratio)
system.cpu1.dcache.power_state.pwrStateResidencyTicks::UNDEFINED 4794840641000                       # Cumulative time (in ticks) in various power states (Tick)
system.cpu1.dcache.tags.tagsInUse         3258.447398                       # Average ticks per tags in use ((Tick/Count))
system.cpu1.dcache.tags.totalRefs             7218877                       # Total number of references to valid blocks. (Count)
system.cpu1.dcache.tags.sampledRefs            201632                       # Sample count of references to valid blocks. (Count)
system.cpu1.dcache.tags.avgRefs             35.802239                       # Average number of references to valid blocks. ((Count/Count))
system.cpu1.dcache.tags.warmupTick       327657857000                       # The tick when the warmup percentage was hit. (Tick)
system.cpu1.dcache.tags.occupancies::cpu1.data  3258.447398                       # Average occupied blocks per tick, per requestor ((Count/Tick))
system.cpu1.dcache.tags.avgOccs::cpu1.data     0.795519                       # Average percentage of cache occupancy ((Ratio/Tick))
system.cpu1.dcache.tags.avgOccs::total       0.795519                       # Average percentage of cache occupancy ((Ratio/Tick))
system.cpu1.dcache.tags.occupanciesTaskId::1024         4042                       # Occupied blocks per task id (Count)
system.cpu1.dcache.tags.ageTaskId_1024::0            7                       # Occupied blocks per task id, per block age (Count)
system.cpu1.dcache.tags.ageTaskId_1024::1          223                       # Occupied blocks per task id, per block age (Count)
system.cpu1.dcache.tags.ageTaskId_1024::2         2541                       # Occupied blocks per task id, per block age (Count)
system.cpu1.dcache.tags.ageTaskId_1024::3         1251                       # Occupied blocks per task id, per block age (Count)
system.cpu1.dcache.tags.ageTaskId_1024::4           20                       # Occupied blocks per task id, per block age (Count)
system.cpu1.dcache.tags.ratioOccsTaskId::1024     0.986816                       # Ratio of occupied blocks and all blocks, per task id (Ratio)
system.cpu1.dcache.tags.tagAccesses          64075490                       # Number of tag accesses (Count)
system.cpu1.dcache.tags.dataAccesses         64075490                       # Number of data accesses (Count)
system.cpu1.dcache.tags.power_state.pwrStateResidencyTicks::UNDEFINED 4794840641000                       # Cumulative time (in ticks) in various power states (Tick)
system.cpu1.dtb_walker_cache.demandHits::cpu1.mmu.dtb.walker         1141                       # number of demand (read+write) hits (Count)
system.cpu1.dtb_walker_cache.demandHits::total         1141                       # number of demand (read+write) hits (Count)
system.cpu1.dtb_walker_cache.overallHits::cpu1.mmu.dtb.walker         1141                       # number of overall hits (Count)
system.cpu1.dtb_walker_cache.overallHits::total         1141                       # number of overall hits (Count)
system.cpu1.dtb_walker_cache.demandMisses::cpu1.mmu.dtb.walker         2093                       # number of demand (read+write) misses (Count)
system.cpu1.dtb_walker_cache.demandMisses::total         2093                       # number of demand (read+write) misses (Count)
system.cpu1.dtb_walker_cache.overallMisses::cpu1.mmu.dtb.walker         2093                       # number of overall misses (Count)
system.cpu1.dtb_walker_cache.overallMisses::total         2093                       # number of overall misses (Count)
system.cpu1.dtb_walker_cache.demandAccesses::cpu1.mmu.dtb.walker         3234                       # number of demand (read+write) accesses (Count)
system.cpu1.dtb_walker_cache.demandAccesses::total         3234                       # number of demand (read+write) accesses (Count)
system.cpu1.dtb_walker_cache.overallAccesses::cpu1.mmu.dtb.walker         3234                       # number of overall (read+write) accesses (Count)
system.cpu1.dtb_walker_cache.overallAccesses::total         3234                       # number of overall (read+write) accesses (Count)
system.cpu1.dtb_walker_cache.demandMissRate::cpu1.mmu.dtb.walker     0.647186                       # miss rate for demand accesses (Ratio)
system.cpu1.dtb_walker_cache.demandMissRate::total     0.647186                       # miss rate for demand accesses (Ratio)
system.cpu1.dtb_walker_cache.overallMissRate::cpu1.mmu.dtb.walker     0.647186                       # miss rate for overall accesses (Ratio)
system.cpu1.dtb_walker_cache.overallMissRate::total     0.647186                       # miss rate for overall accesses (Ratio)
system.cpu1.dtb_walker_cache.blockedCycles::no_mshrs            0                       # number of cycles access was blocked (Cycle)
system.cpu1.dtb_walker_cache.blockedCycles::no_targets            0                       # number of cycles access was blocked (Cycle)
system.cpu1.dtb_walker_cache.blockedCauses::no_mshrs            0                       # number of times access was blocked (Count)
system.cpu1.dtb_walker_cache.blockedCauses::no_targets            0                       # number of times access was blocked (Count)
system.cpu1.dtb_walker_cache.avgBlocked::no_mshrs          nan                       # average number of cycles each access was blocked ((Cycle/Count))
system.cpu1.dtb_walker_cache.avgBlocked::no_targets          nan                       # average number of cycles each access was blocked ((Cycle/Count))
system.cpu1.dtb_walker_cache.replacements         1647                       # number of replacements (Count)
system.cpu1.dtb_walker_cache.ReadReq.hits::cpu1.mmu.dtb.walker         1141                       # number of ReadReq hits (Count)
system.cpu1.dtb_walker_cache.ReadReq.hits::total         1141                       # number of ReadReq hits (Count)
system.cpu1.dtb_walker_cache.ReadReq.misses::cpu1.mmu.dtb.walker         2093                       # number of ReadReq misses (Count)
system.cpu1.dtb_walker_cache.ReadReq.misses::total         2093                       # number of ReadReq misses (Count)
system.cpu1.dtb_walker_cache.ReadReq.accesses::cpu1.mmu.dtb.walker         3234                       # number of ReadReq accesses(hits+misses) (Count)
system.cpu1.dtb_walker_cache.ReadReq.accesses::total         3234                       # number of ReadReq accesses(hits+misses) (Count)
system.cpu1.dtb_walker_cache.ReadReq.missRate::cpu1.mmu.dtb.walker     0.647186                       # miss rate for ReadReq accesses (Ratio)
system.cpu1.dtb_walker_cache.ReadReq.missRate::total     0.647186                       # miss rate for ReadReq accesses (Ratio)
system.cpu1.dtb_walker_cache.power_state.pwrStateResidencyTicks::UNDEFINED 4794840641000                       # Cumulative time (in ticks) in various power states (Tick)
[...]
system.switch_cpus3.fetchStats0.numInsts        71437                       # Number of instructions fetched (thread level) (Count)
system.switch_cpus3.fetchStats0.numOps         133372                       # Number of ops (including micro ops) fetched (thread level) (Count)
system.switch_cpus3.fetchStats0.fetchRate     0.054571                       # Number of inst fetches per cycle ((Count/Cycle))
system.switch_cpus3.fetchStats0.numBranches        13633                       # Number of branches fetched (Count)
system.switch_cpus3.fetchStats0.branchRate     0.010414                       # Number of branch fetches per cycle (Ratio)
system.switch_cpus3.fetchStats0.numFetchSuspends            0                       # Number of times Execute suspended instruction fetching (Count)
system.switch_cpus3.mmu.dtb.rdAccesses          19148                       # TLB accesses on read requests (Count)
system.switch_cpus3.mmu.dtb.wrAccesses          18868                       # TLB accesses on write requests (Count)
system.switch_cpus3.mmu.dtb.rdMisses               41                       # TLB misses on read requests (Count)
system.switch_cpus3.mmu.dtb.wrMisses               10                       # TLB misses on write requests (Count)
system.switch_cpus3.mmu.dtb.walker.power_state.pwrStateResidencyTicks::UNDEFINED   3081955000                       # Cumulative time (in ticks) in various power states (Tick)
system.switch_cpus3.mmu.itb.rdAccesses              0                       # TLB accesses on read requests (Count)
system.switch_cpus3.mmu.itb.wrAccesses          95419                       # TLB accesses on write requests (Count)
system.switch_cpus3.mmu.itb.rdMisses                0                       # TLB misses on read requests (Count)
system.switch_cpus3.mmu.itb.wrMisses               47                       # TLB misses on write requests (Count)
system.switch_cpus3.mmu.itb.walker.power_state.pwrStateResidencyTicks::UNDEFINED   3081955000                       # Cumulative time (in ticks) in various power states (Tick)
system.switch_cpus3.power_state.numTransitions            3                       # Number of power state transitions (Count)
system.switch_cpus3.power_state.ticksClkGated::samples            2                       # Distribution of time spent in the clock gated state (Tick)
system.switch_cpus3.power_state.ticksClkGated::mean   1236512250                       # Distribution of time spent in the clock gated state (Tick)
system.switch_cpus3.power_state.ticksClkGated::stdev 1072665784.264197                       # Distribution of time spent in the clock gated state (Tick)
system.switch_cpus3.power_state.ticksClkGated::1000-5e+10            2    100.00%    100.00% # Distribution of time spent in the clock gated state (Tick)
system.switch_cpus3.power_state.ticksClkGated::min_value    478023000                       # Distribution of time spent in the clock gated state (Tick)
system.switch_cpus3.power_state.ticksClkGated::max_value   1995001500                       # Distribution of time spent in the clock gated state (Tick)
system.switch_cpus3.power_state.ticksClkGated::total            2                       # Distribution of time spent in the clock gated state (Tick)
system.switch_cpus3.power_state.pwrStateResidencyTicks::ON     13629500                       # Cumulative time (in ticks) in various power states (Tick)
system.switch_cpus3.power_state.pwrStateResidencyTicks::CLK_GATED   2473024500                       # Cumulative time (in ticks) in various power states (Tick)
system.switch_cpus3.power_state.pwrStateResidencyTicks::OFF    595301000                       # Cumulative time (in ticks) in various power states (Tick)
system.switch_cpus3.thread_0.numInsts               0                       # Number of Instructions committed (Count)
system.switch_cpus3.thread_0.numOps                 0                       # Number of Ops committed (Count)
system.switch_cpus3.thread_0.numMemRefs             0                       # Number of Memory References (Count)
system.tol2bus.transDist::ReadReq                   2                       # Transaction distribution (Count)
system.tol2bus.transDist::ReadResp               3625                       # Transaction distribution (Count)
system.tol2bus.transDist::WriteReq                 10                       # Transaction distribution (Count)
system.tol2bus.transDist::WriteResp                10                       # Transaction distribution (Count)
system.tol2bus.transDist::WritebackDirty         1630                       # Transaction distribution (Count)
system.tol2bus.transDist::WritebackClean         1128                       # Transaction distribution (Count)
system.tol2bus.transDist::CleanEvict             2762                       # Transaction distribution (Count)
system.tol2bus.transDist::UpgradeReq              905                       # Transaction distribution (Count)
system.tol2bus.transDist::UpgradeResp             905                       # Transaction distribution (Count)
system.tol2bus.transDist::ReadExReq              1257                       # Transaction distribution (Count)
system.tol2bus.transDist::ReadExResp             1257                       # Transaction distribution (Count)
system.tol2bus.transDist::ReadCleanReq           1133                       # Transaction distribution (Count)
system.tol2bus.transDist::ReadSharedReq          2490                       # Transaction distribution (Count)
system.tol2bus.pktCount_system.cpu0.icache.mem_side_port::system.l2.cpu_side_port          291                       # Packet count per connected requestor and responder (Count)
system.tol2bus.pktCount_system.cpu0.dcache.mem_side_port::system.l2.cpu_side_port          876                       # Packet count per connected requestor and responder (Count)
system.tol2bus.pktCount_system.cpu0.itb_walker_cache.mem_side_port::system.l2.cpu_side_port          207                       # Packet count per connected requestor and responder (Count)
system.tol2bus.pktCount_system.cpu0.dtb_walker_cache.mem_side_port::system.l2.cpu_side_port          202                       # Packet count per connected requestor and responder (Count)
system.tol2bus.pktCount_system.cpu1.icache.mem_side_port::system.l2.cpu_side_port         1737                       # Packet count per connected requestor and responder (Count)
system.tol2bus.pktCount_system.cpu1.dcache.mem_side_port::system.l2.cpu_side_port         3566                       # Packet count per connected requestor and responder (Count)
system.tol2bus.pktCount_system.cpu1.itb_walker_cache.mem_side_port::system.l2.cpu_side_port          368                       # Packet count per connected requestor and responder (Count)
system.tol2bus.pktCount_system.cpu1.dtb_walker_cache.mem_side_port::system.l2.cpu_side_port          309                       # Packet count per connected requestor and responder (Count)
system.tol2bus.pktCount_system.cpu2.icache.mem_side_port::system.l2.cpu_side_port           33                       # Packet count per connected requestor and responder (Count)
system.tol2bus.pktCount_system.cpu2.dcache.mem_side_port::system.l2.cpu_side_port           31                       # Packet count per connected requestor and responder (Count)
system.tol2bus.pktCount_system.cpu2.itb_walker_cache.mem_side_port::system.l2.cpu_side_port            6                       # Packet count per connected requestor and responder (Count)
system.tol2bus.pktCount_system.cpu2.dtb_walker_cache.mem_side_port::system.l2.cpu_side_port           27                       # Packet count per connected requestor and responder (Count)
system.tol2bus.pktCount_system.cpu3.icache.mem_side_port::system.l2.cpu_side_port         1333                       # Packet count per connected requestor and responder (Count)
system.tol2bus.pktCount_system.cpu3.dcache.mem_side_port::system.l2.cpu_side_port         2348                       # Packet count per connected requestor and responder (Count)
system.tol2bus.pktCount_system.cpu3.itb_walker_cache.mem_side_port::system.l2.cpu_side_port          394                       # Packet count per connected requestor and responder (Count)
system.tol2bus.pktCount_system.cpu3.dtb_walker_cache.mem_side_port::system.l2.cpu_side_port          408                       # Packet count per connected requestor and responder (Count)
system.tol2bus.pktCount::total                  12136                       # Packet count per connected requestor and responder (Count)
system.tol2bus.pktSize_system.cpu0.icache.mem_side_port::system.l2.cpu_side_port        12416                       # Cumulative packet size per connected requestor and responder (Byte)
system.tol2bus.pktSize_system.cpu0.dcache.mem_side_port::system.l2.cpu_side_port        18056                       # Cumulative packet size per connected requestor and responder (Byte)
system.tol2bus.pktSize_system.cpu0.itb_walker_cache.mem_side_port::system.l2.cpu_side_port          192                       # Cumulative packet size per connected requestor and responder (Byte)
system.tol2bus.pktSize_system.cpu0.dtb_walker_cache.mem_side_port::system.l2.cpu_side_port         1152                       # Cumulative packet size per connected requestor and responder (Byte)
system.tol2bus.pktSize_system.cpu1.icache.mem_side_port::system.l2.cpu_side_port        74112                       # Cumulative packet size per connected requestor and responder (Byte)
system.tol2bus.pktSize_system.cpu1.dcache.mem_side_port::system.l2.cpu_side_port        59092                       # Cumulative packet size per connected requestor and responder (Byte)
system.tol2bus.pktSize_system.cpu1.itb_walker_cache.mem_side_port::system.l2.cpu_side_port          512                       # Cumulative packet size per connected requestor and responder (Byte)
system.tol2bus.pktSize_system.cpu1.dtb_walker_cache.mem_side_port::system.l2.cpu_side_port         1472                       # Cumulative packet size per connected requestor and responder (Byte)
system.tol2bus.pktSize_system.cpu2.icache.mem_side_port::system.l2.cpu_side_port         1408                       # Cumulative packet size per connected requestor and responder (Byte)
system.tol2bus.pktSize_system.cpu2.dcache.mem_side_port::system.l2.cpu_side_port           68                       # Cumulative packet size per connected requestor and responder (Byte)
system.tol2bus.pktSize_system.cpu2.itb_walker_cache.mem_side_port::system.l2.cpu_side_port          192                       # Cumulative packet size per connected requestor and responder (Byte)
system.tol2bus.pktSize_system.cpu2.dtb_walker_cache.mem_side_port::system.l2.cpu_side_port          704                       # Cumulative packet size per connected requestor and responder (Byte)
system.tol2bus.pktSize_system.cpu3.icache.mem_side_port::system.l2.cpu_side_port        56768                       # Cumulative packet size per connected requestor and responder (Byte)
system.tol2bus.pktSize_system.cpu3.dcache.mem_side_port::system.l2.cpu_side_port        54928                       # Cumulative packet size per connected requestor and responder (Byte)
system.tol2bus.pktSize_system.cpu3.itb_walker_cache.mem_side_port::system.l2.cpu_side_port         6272                       # Cumulative packet size per connected requestor and responder (Byte)
system.tol2bus.pktSize_system.cpu3.dtb_walker_cache.mem_side_port::system.l2.cpu_side_port         7552                       # Cumulative packet size per connected requestor and responder (Byte)
system.tol2bus.pktSize::total                  294896                       # Cumulative packet size per connected requestor and responder (Byte)
system.tol2bus.snoops                            4978                       # Total snoops (Count)
system.tol2bus.snoopTraffic                    193984                       # Total snoop traffic (Byte)
system.tol2bus.snoopFanout::samples              7968                       # Request fanout histogram (Count)
system.tol2bus.snoopFanout::mean             1.327309                       # Request fanout histogram (Count)
system.tol2bus.snoopFanout::stdev            1.005469                       # Request fanout histogram (Count)
system.tol2bus.snoopFanout::underflows              0      0.00%      0.00% # Request fanout histogram (Count)
system.tol2bus.snoopFanout::0                    1461     18.34%     18.34% # Request fanout histogram (Count)
system.tol2bus.snoopFanout::1                    3823     47.98%     66.32% # Request fanout histogram (Count)
system.tol2bus.snoopFanout::2                    1560     19.58%     85.89% # Request fanout histogram (Count)
system.tol2bus.snoopFanout::3                     885     11.11%     97.00% # Request fanout histogram (Count)
system.tol2bus.snoopFanout::4                     227      2.85%     99.85% # Request fanout histogram (Count)
system.tol2bus.snoopFanout::5                       7      0.09%     99.94% # Request fanout histogram (Count)
system.tol2bus.snoopFanout::6                       3      0.04%     99.97% # Request fanout histogram (Count)
system.tol2bus.snoopFanout::7                       1      0.01%     99.99% # Request fanout histogram (Count)
system.tol2bus.snoopFanout::8                       0      0.00%     99.99% # Request fanout histogram (Count)
system.tol2bus.snoopFanout::9                       0      0.00%     99.99% # Request fanout histogram (Count)
system.tol2bus.snoopFanout::10                      1      0.01%    100.00% # Request fanout histogram (Count)
system.tol2bus.snoopFanout::11                      0      0.00%    100.00% # Request fanout histogram (Count)
system.tol2bus.snoopFanout::12                      0      0.00%    100.00% # Request fanout histogram (Count)
system.tol2bus.snoopFanout::13                      0      0.00%    100.00% # Request fanout histogram (Count)
system.tol2bus.snoopFanout::14                      0      0.00%    100.00% # Request fanout histogram (Count)
system.tol2bus.snoopFanout::15                      0      0.00%    100.00% # Request fanout histogram (Count)
system.tol2bus.snoopFanout::16                      0      0.00%    100.00% # Request fanout histogram (Count)
system.tol2bus.snoopFanout::overflows               0      0.00%    100.00% # Request fanout histogram (Count)
system.tol2bus.snoopFanout::min_value               0                       # Request fanout histogram (Count)
system.tol2bus.snoopFanout::max_value              10                       # Request fanout histogram (Count)
system.tol2bus.snoopFanout::total                7968                       # Request fanout histogram (Count)
system.tol2bus.power_state.pwrStateResidencyTicks::UNDEFINED   3081955000                       # Cumulative time (in ticks) in various power states (Tick)
system.tol2bus.reqLayer0.occupancy            6738499                       # Layer occupancy (ticks) (Tick)
system.tol2bus.reqLayer0.utilization              0.0                       # Layer utilization (Ratio)
system.tol2bus.respLayer0.occupancy            145500                       # Layer occupancy (ticks) (Tick)
system.tol2bus.respLayer0.utilization             0.0                       # Layer utilization (Ratio)
system.tol2bus.respLayer1.occupancy            728000                       # Layer occupancy (ticks) (Tick)
system.tol2bus.respLayer1.utilization             0.0                       # Layer utilization (Ratio)
system.tol2bus.respLayer10.occupancy             4500                       # Layer occupancy (ticks) (Tick)
system.tol2bus.respLayer10.utilization            0.0                       # Layer utilization (Ratio)
system.tol2bus.respLayer11.occupancy            16500                       # Layer occupancy (ticks) (Tick)
system.tol2bus.respLayer11.utilization            0.0                       # Layer utilization (Ratio)
system.tol2bus.respLayer12.occupancy           669000                       # Layer occupancy (ticks) (Tick)
system.tol2bus.respLayer12.utilization            0.0                       # Layer utilization (Ratio)
system.tol2bus.respLayer13.occupancy          1591000                       # Layer occupancy (ticks) (Tick)
system.tol2bus.respLayer13.utilization            0.0                       # Layer utilization (Ratio)
system.tol2bus.respLayer14.occupancy           235500                       # Layer occupancy (ticks) (Tick)
system.tol2bus.respLayer14.utilization            0.0                       # Layer utilization (Ratio)
system.tol2bus.respLayer15.occupancy           232500                       # Layer occupancy (ticks) (Tick)
system.tol2bus.respLayer15.utilization            0.0                       # Layer utilization (Ratio)
system.tol2bus.respLayer2.occupancy            171000                       # Layer occupancy (ticks) (Tick)
system.tol2bus.respLayer2.utilization             0.0                       # Layer utilization (Ratio)
system.tol2bus.respLayer3.occupancy            153000                       # Layer occupancy (ticks) (Tick)
system.tol2bus.respLayer3.utilization             0.0                       # Layer utilization (Ratio)
system.tol2bus.respLayer4.occupancy            868500                       # Layer occupancy (ticks) (Tick)
system.tol2bus.respLayer4.utilization             0.0                       # Layer utilization (Ratio)
system.tol2bus.respLayer5.occupancy           2388501                       # Layer occupancy (ticks) (Tick)
system.tol2bus.respLayer5.utilization             0.0                       # Layer utilization (Ratio)
system.tol2bus.respLayer6.occupancy            292500                       # Layer occupancy (ticks) (Tick)
system.tol2bus.respLayer6.utilization             0.0                       # Layer utilization (Ratio)
system.tol2bus.respLayer7.occupancy            237000                       # Layer occupancy (ticks) (Tick)
system.tol2bus.respLayer7.utilization             0.0                       # Layer utilization (Ratio)
system.tol2bus.respLayer8.occupancy             16500                       # Layer occupancy (ticks) (Tick)
system.tol2bus.respLayer8.utilization             0.0                       # Layer utilization (Ratio)
system.tol2bus.respLayer9.occupancy             30000                       # Layer occupancy (ticks) (Tick)
system.tol2bus.respLayer9.utilization             0.0                       # Layer utilization (Ratio)
system.tol2bus.snoop_filter.totRequests          9134                       # Total number of requests made to the snoop filter. (Count)
system.tol2bus.snoop_filter.hitSingleRequests         3648                       # Number of requests hitting in the snoop filter with a single holder of the requested data. (Count)
system.tol2bus.snoop_filter.hitMultiRequests         4816                       # Number of requests hitting in the snoop filter with multiple (>1) holders of the requested data. (Count)
system.tol2bus.snoop_filter.totSnoops            1408                       # Total number of snoops made to the snoop filter. (Count)
system.tol2bus.snoop_filter.hitSingleSnoops          875                       # Number of snoops hitting in the snoop filter with a single holder of the requested data. (Count)
system.tol2bus.snoop_filter.hitMultiSnoops          533                       # Number of snoops hitting in the snoop filter with multiple (>1) holders of the requested data. (Count)
system.voltage_domain.voltage                       1                       # Voltage in Volts (Volt)
system.workload.inst.arm                            0                       # number of arm instructions executed (Count)
system.workload.inst.quiesce                        0                       # number of quiesce instructions executed (Count)

---------- End Simulation Statistics   ----------
